20

C	-1.865099	-0.485835	-1.183679
O	-2.047969	-0.085404	0.163277
C	-0.891391	0.336512	0.885315
C	0.072799	-0.822623	1.248612
C	1.340729	-0.935972	0.431443
O	1.242229	-0.905511	-0.98845
C	1.826375	0.237264	-0.312344
C	1.016676	1.480353	-0.290078
C	-0.206737	1.518714	0.239589
H	-1.202043	-1.352962	-1.279453
H	-2.859956	-0.74761	-1.553254
H	-1.452054	0.319855	-1.803737
H	-1.333447	0.688488	1.825197
H	0.38613	-0.695094	2.292446
H	-0.492449	-1.760543	1.209983
H	2.072119	-1.652969	0.808581
H	2.892598	0.346494	-0.498471
H	1.458294	2.371523	-0.72712
H	-0.783391	2.439656	0.214062
