19

O	-2.813823	0.192808	-0.537474
C	-1.662246	-0.626902	-0.423933
C	-0.76778	-0.238787	0.779477
C	0.429641	-1.210584	0.915375
C	1.628238	-0.840717	0.070238
O	1.394749	-0.390535	-1.262031
C	1.845858	0.574901	-0.276337
C	0.857903	1.57392	0.195712
C	-0.325837	1.200712	0.689511
H	-2.530076	1.041401	-0.89119
H	-2.032572	-1.647252	-0.270752
H	-1.058279	-0.614627	-1.338696
H	-1.400736	-0.343847	1.669242
H	0.768318	-1.233676	1.958905
H	0.10564	-2.230501	0.673263
H	2.498976	-1.489232	0.178383
H	2.859256	0.92678	-0.456769
H	1.136679	2.622097	0.142636
H	-1.029279	1.955413	1.030767
