19

C	4.260453	-0.018039	-0.225708
C	2.84922	-0.229486	0.061921
C	1.682707	-0.396033	0.306522
C	0.266869	-0.597418	0.581012
C	-0.642681	0.268165	-0.333601
O	-0.397508	1.628461	-0.135275
C	-2.125841	-0.034661	-0.087175
C	-2.632008	-1.442168	-0.301199
O	-2.853119	0.868464	0.269616
H	4.588042	-0.613252	-1.085321
H	4.464097	1.033953	-0.45396
H	4.886901	-0.298433	0.628412
H	0.012388	-1.656995	0.451088
H	0.040692	-0.337001	1.623018
H	-0.423993	-0.010124	-1.378546
H	-1.250699	1.99969	0.145004
H	-2.166616	-1.909359	-1.173926
H	-2.380976	-2.058019	0.570569
H	-3.717129	-1.428015	-0.411704
