19

C	-1.981659	1.290893	0.569589
C	-0.877622	0.4387	-0.034453
C	-1.301569	-0.590588	-1.109538
O	-0.702184	-1.681814	-0.381325
C	-0.399847	-0.834455	0.749372
C	1.094653	-0.735962	0.995752
C	1.586302	0.298032	-0.025121
O	2.703773	0.394966	-0.455957
C	0.403383	1.209065	-0.390014
H	-2.328133	2.050698	-0.140301
H	-2.84515	0.679964	0.852807
H	-1.630943	1.814331	1.466235
H	-2.38781	-0.716082	-1.211672
H	-0.86088	-0.47167	-2.106961
H	-0.985713	-1.116055	1.631903
H	1.305578	-0.350121	2.002665
H	1.614635	-1.689695	0.884216
H	0.495635	2.11707	0.221144
H	0.468231	1.522228	-1.435298
