19

C	-2.510292	-0.346405	0.173052
O	-1.385392	-1.056629	-0.320413
C	-0.145991	-0.502105	-0.061897
C	0.367386	-0.003275	1.33953
C	1.502882	0.594015	0.443121
C	2.101639	-0.664435	-0.174842
C	1.022241	-1.379454	-0.507202
C	0.372735	0.884232	-0.629711
O	-0.494303	1.957235	-0.348923
H	-2.588928	0.651681	-0.26865
H	-3.38885	-0.937307	-0.096477
H	-2.475742	-0.245848	1.266477
H	-0.26117	0.768925	1.786318
H	0.652919	-0.767748	2.06493
H	2.158859	1.385757	0.80105
H	3.149359	-0.872947	-0.338542
H	0.915032	-2.330934	-1.007344
H	0.697423	0.880346	-1.677772
H	-0.084941	2.767791	-0.667618
