19

O	-2.416135	0.550302	-1.114705
C	-2.12705	-0.249962	0.020317
C	-0.681295	-0.162527	0.448917
C	-0.039939	-1.307973	1.154984
C	0.40499	-0.970187	-0.265713
C	1.609983	-0.095609	-0.388997
O	2.541219	-0.270738	-1.135301
C	1.418117	1.114217	0.540841
C	-0.104483	1.224495	0.757364
H	-1.861473	0.239462	-1.838494
H	-2.776772	0.12979	0.817503
H	-2.400254	-1.303774	-0.147765
H	0.641552	-1.121579	1.978629
H	-0.609217	-2.226921	1.250872
H	0.205999	-1.687603	-1.053277
H	1.958047	0.924049	1.476226
H	1.869769	2.0012	0.09303
H	-0.369574	1.557567	1.766317
H	-0.540692	1.936565	0.050721
