19

C	1.264276	-0.177898	1.522095
C	1.008429	-0.131226	0.009965
C	2.158173	-0.782481	-0.755017
C	0.761307	1.306696	-0.47963
C	-0.611723	1.788599	-0.115656
C	-1.602536	0.924057	0.104165
C	-1.411367	-0.533553	-0.065082
O	-2.323423	-1.321058	-0.076597
O	-0.144531	-0.973809	-0.279125
H	1.331164	-1.217287	1.853192
H	2.205285	0.324902	1.766199
H	0.46044	0.310201	2.079133
H	1.93469	-0.817352	-1.82462
H	3.083014	-0.216114	-0.608652
H	2.317563	-1.805399	-0.404286
H	1.526652	1.966269	-0.055664
H	0.885447	1.36128	-1.570594
H	-0.786376	2.859956	-0.061156
H	-2.613603	1.227319	0.347179
