19

C	-1.858445	-1.234389	0.393036
C	-0.826588	-0.591674	-0.517531
O	0.345741	-1.411637	-0.639126
C	1.485258	-0.544032	-0.350207
C	1.029532	0.789484	-0.95571
C	-0.246358	0.788662	-0.061156
O	-1.204263	1.797698	-0.209001
C	0.380613	0.574844	1.308934
C	1.439102	-0.224598	1.138443
H	-1.452573	-1.400498	1.394099
H	-2.743244	-0.593958	0.466104
H	-2.165978	-2.202091	-0.01364
H	-1.263521	-0.438859	-1.514903
H	2.37959	-1.027173	-0.738883
H	1.698536	1.624616	-0.739421
H	0.812971	0.728876	-2.025396
H	-0.818426	2.627613	0.089288
H	-0.060277	0.922435	2.235325
H	2.06241	-0.679225	1.897592
