19

O	-2.157232	0.693443	-0.981796
C	-1.239658	0.224008	-0.041808
C	-1.577941	-1.002425	0.769489
C	-0.509636	-1.06381	-0.308043
C	0.906295	-0.933181	0.189688
O	1.860878	-0.607309	-0.845693
C	2.133799	0.677013	-0.251333
C	1.044969	0.481886	0.828133
C	-0.285574	1.234738	0.600909
H	-2.892642	1.095859	-0.50723
H	-1.282959	-1.052965	1.814595
H	-2.517542	-1.491699	0.537846
H	-0.70411	-1.642668	-1.203352
H	1.245805	-1.794064	0.779326
H	3.160838	0.734623	0.132039
H	1.968537	1.502907	-0.954651
H	1.401047	0.531317	1.857054
H	-0.687835	1.645788	1.534065
H	-0.153831	2.072452	-0.091982
