19

C	2.447429	-1.333521	-0.575113
C	1.928203	-0.502158	0.610534
C	0.768379	0.38501	0.262325
C	0.779875	1.74009	0.146605
O	-0.447535	2.218416	-0.188314
C	-1.267484	1.139795	-0.294822
C	-0.59131	-0.011238	-0.032358
C	-1.173691	-1.394607	-0.032881
O	-2.586823	-1.397429	0.100886
H	2.778166	-0.683075	-1.390466
H	3.292388	-1.959652	-0.271631
H	1.66915	-1.992619	-0.97264
H	1.642918	-1.180269	1.42567
H	2.743606	0.115722	1.003163
H	1.552932	2.480185	0.278065
H	-2.290603	1.344282	-0.561213
H	-0.97387	-1.904516	-0.983179
H	-0.69332	-2.002753	0.751384
H	-2.794914	-0.925418	0.914537
