19

C	2.969961	0.426862	-0.570349
C	1.790697	-0.286001	0.0606
O	1.930621	-1.121574	0.924547
C	0.403401	0.129359	-0.423246
C	-0.171682	1.274837	0.470591
C	-1.685729	1.216705	0.230739
C	-1.983162	-0.25335	-0.097905
O	-3.077196	-0.745371	-0.185977
C	-0.652564	-0.976192	-0.308452
H	3.052352	0.134412	-1.624205
H	2.821634	1.51236	-0.55596
H	3.891837	0.166909	-0.049218
H	0.471203	0.495484	-1.454634
H	0.052767	1.048968	1.518974
H	0.268216	2.247634	0.23861
H	-2.297235	1.563872	1.066844
H	-1.973709	1.810577	-0.646607
H	-0.437325	-1.577986	0.584278
H	-0.702673	-1.659994	-1.158501
