19

C	2.661388	-0.08668	0.611972
O	2.485345	0.116057	-0.787842
C	1.370331	0.372546	0.07804
C	0.207146	-0.564345	-0.060639
C	-0.998719	-0.568965	0.917188
C	-1.514181	0.886755	0.919981
C	-1.505406	1.101831	-0.628047
C	-0.987951	-0.298977	-1.017135
O	-1.793758	-1.162977	-0.154713
H	2.771941	-1.12459	0.924351
H	3.322424	0.620814	1.110827
H	1.140906	1.432763	0.181873
H	0.56261	-1.586201	-0.207816
H	-1.00639	-1.135921	1.848222
H	-2.517017	0.942835	1.347184
H	-0.865709	1.576483	1.467312
H	-2.503342	1.275304	-1.034449
H	-0.851523	1.913238	-0.958953
H	-0.982244	-0.592353	-2.066276
