19

C	-3.020586	-0.758579	-0.005894
O	-1.928836	-0.170722	-0.679764
C	-1.072098	0.542384	0.170663
C	-0.075767	-0.34622	0.995292
C	1.086499	0.234332	0.188522
C	1.098359	1.747682	0.272773
C	0.096719	1.121579	-0.626885
C	2.219452	-0.522596	-0.349175
O	2.452934	-1.681457	-0.096255
H	-3.635017	-0.000224	0.503941
H	-3.630604	-1.262697	-0.758527
H	-2.696206	-1.498881	0.74004
H	-1.642941	1.280517	0.757952
H	-0.036755	-0.199816	2.078663
H	-0.225073	-1.404104	0.772446
H	0.796739	2.215744	1.206883
H	1.93378	2.234388	-0.221717
H	0.07993	1.280399	-1.697865
H	2.867892	0.060617	-1.045446
