19

C	1.199802	1.112127	1.218539
C	0.832959	0.161547	0.102164
C	1.642991	0.108985	-1.12179
O	1.766499	-0.907705	-0.118618
C	-0.618451	-0.2558	0.038228
C	-0.975885	-1.643088	-0.486717
C	-1.102809	-1.366222	0.969909
C	-1.608865	0.805162	-0.26352
O	-1.349603	1.963697	-0.483794
H	0.940596	0.680322	2.191131
H	2.273765	1.312548	1.20792
H	0.656851	2.053079	1.101612
H	1.187465	-0.213411	-2.056623
H	2.504826	0.765827	-1.225147
H	-1.878292	-1.737795	-1.081096
H	-0.131019	-2.23557	-0.814526
H	-2.09268	-1.268715	1.403302
H	-0.351865	-1.780688	1.632858
H	-2.663261	0.440208	-0.281024
