19

C	2.05816	1.669517	0.120765
C	0.98591	0.719389	-0.415385
C	-0.352277	0.644708	0.383432
C	-1.587896	0.228339	-0.464836
O	-2.838266	0.719177	-0.042421
C	-1.300166	-1.272373	-0.151703
C	-0.079121	-0.871486	0.737137
C	1.235695	-0.759131	-0.036627
O	2.162676	-1.498532	-0.205424
H	2.19943	1.541126	1.199235
H	3.017122	1.473519	-0.367342
H	1.781637	2.712302	-0.062376
H	0.854119	0.87825	-1.49248
H	-0.514526	1.419443	1.13408
H	-1.516845	0.503144	-1.521479
H	-2.951443	0.500975	0.889244
H	-2.111405	-1.721098	0.428219
H	-1.086735	-1.927306	-1.000279
H	-0.028455	-1.299292	1.739242
