19

C	2.628542	-0.112677	-0.528152
C	1.155233	-0.455155	-0.557782
C	0.471936	-0.93109	0.6969
C	-0.805672	-1.753478	0.51191
C	-1.714125	-0.913441	-0.420927
C	-1.202225	0.515819	-0.263412
O	-1.830595	1.546743	-0.366624
C	0.212488	0.482669	0.192202
O	0.691902	1.645345	0.764731
H	2.910004	0.340999	0.424885
H	3.236085	-1.011468	-0.677888
H	2.879962	0.601778	-1.31827
H	0.806702	-0.870706	-1.501684
H	1.081066	-1.083541	1.581371
H	-0.598541	-2.74912	0.105857
H	-1.297496	-1.891967	1.480222
H	-1.621055	-1.213882	-1.471397
H	-2.774777	-0.964579	-0.16905
H	0.01053	2.309897	0.576667
