19

C	-1.846191	-0.540394	-0.679575
C	-1.919765	0.629979	0.372749
C	-0.37206	0.548005	0.444382
C	0.128365	-0.662221	1.286161
O	0.951455	-1.423739	0.380111
C	1.013031	-0.622812	-0.774199
O	1.720596	0.602898	-0.482054
C	0.82756	1.471187	0.300273
C	-0.390179	-0.069841	-0.968785
H	-1.909711	-1.527489	-0.219549
H	-2.540705	-0.496158	-1.519676
H	-2.266484	1.55591	-0.093703
H	-2.479906	0.465875	1.29637
H	0.729635	-0.327672	2.139834
H	-0.678065	-1.299731	1.661324
H	1.561681	-1.147683	-1.554016
H	1.342374	1.735069	1.230384
H	0.612326	2.383425	-0.26886
H	-0.392122	0.701767	-1.742593
