19

C	-0.528451	2.248966	-0.141661
C	-0.18041	0.767986	-0.01369
C	-0.698195	-0.094215	-1.198319
C	-1.348715	-1.354353	-0.577923
C	-1.434257	-1.01792	0.886983
C	-0.792144	0.10558	1.196158
O	1.295771	0.805039	0.097293
C	2.024657	-0.311846	0.09402
O	1.648223	-1.444391	-0.046927
H	-0.09144	2.669784	-1.052368
H	-1.613806	2.37238	-0.183126
H	-0.145011	2.8116	0.714195
H	-1.446867	0.488191	-1.743543
H	0.100927	-0.331799	-1.9009
H	-2.331469	-1.567916	-1.013464
H	-0.728065	-2.244957	-0.722784
H	-1.944482	-1.655717	1.601098
H	-0.687609	0.535054	2.186299
H	3.080958	-0.026994	0.238261
