19

O	2.283483	-0.699476	0.011316
C	1.041154	-0.092543	-0.18127
C	0.966859	1.388034	-0.474997
C	0.500329	0.85201	0.862442
C	-0.968924	0.397651	0.992055
C	-0.811868	-1.13209	0.908723
C	-0.16223	-1.025267	-0.497561
C	-1.274511	-0.24277	-1.2039
O	-1.700839	0.710708	-0.208811
H	2.703375	-0.80135	-0.849759
H	1.92432	1.899153	-0.458752
H	0.237308	1.804584	-1.157943
H	1.062542	1.091042	1.758316
H	-1.513992	0.815989	1.837983
H	-0.129239	-1.536238	1.659011
H	-1.7628	-1.673083	0.928627
H	0.12791	-1.953187	-0.99049
H	-0.939752	0.286403	-2.102667
H	-2.115688	-0.893312	-1.477315
