19

C	-1.569806	-0.803119	-1.360454
C	-0.819655	-0.322613	-0.149228
C	-1.36969	0.311752	1.155771
C	0.160021	0.293121	1.374306
C	0.217051	-1.106953	0.712917
O	1.431786	-1.282911	-0.007223
C	1.596526	-0.009255	-0.637672
C	0.350443	0.720067	-0.127073
O	0.079597	2.003041	-0.58994
H	-0.891662	-1.278951	-2.077157
H	-2.332452	-1.539292	-1.084715
H	-2.070433	0.028484	-1.867499
H	-1.825103	1.297191	1.048012
H	-1.968751	-0.336469	1.802281
H	0.732065	0.639362	2.236128
H	-0.053869	-2.01166	1.254014
H	2.536442	0.460961	-0.316041
H	1.609621	-0.111282	-1.729973
H	0.783733	2.592621	-0.299148
