19

C	-1.330898	1.887499	0.142624
C	-0.863012	0.674387	-0.646818
C	-1.678923	-0.623876	-0.504481
O	-1.554882	-1.056578	0.856842
C	-0.497455	-1.375813	-0.059453
C	0.393083	-0.135378	-0.146167
C	1.702113	-0.169524	-0.956964
O	2.488804	0.101673	0.218058
C	1.302505	0.261791	1.028582
H	-1.518282	1.61513	1.18499
H	-0.583946	2.688007	0.124393
H	-2.259007	2.291063	-0.276403
H	-0.725537	0.922401	-1.705915
H	-2.561543	-0.945152	-1.045731
H	-0.228002	-2.420891	-0.168123
H	1.964096	-1.130436	-1.419614
H	1.797989	0.624134	-1.711161
H	1.290994	-0.413937	1.891775
H	1.187391	1.294404	1.382658
