19

C	-1.986335	0.017648	0.0
C	-0.867955	0.274608	-1.042496
O	-0.083477	-0.917031	-1.173963
C	0.693007	-1.122585	9e-06
C	1.886052	-0.168534	-4e-06
C	1.335691	1.281187	-5e-06
C	-0.186526	1.215102	-1e-05
C	-0.867955	0.274627	1.042491
O	-0.083474	-0.917009	1.173977
H	-2.747995	0.80205	-5e-06
H	-2.441439	-0.973916	8e-06
H	-1.104154	0.627055	-2.048367
H	0.993306	-2.172581	1.8e-05
H	2.497716	-0.370502	0.883755
H	2.497699	-0.370509	-0.883773
H	1.683849	1.8358	0.877334
H	1.68386	1.835803	-0.87734
H	-0.658958	2.199711	-2e-05
H	-1.104152	0.627088	2.048358
