19

C	-3.110217	-1.076017	0.136911
O	-2.49374	0.137452	-0.252128
C	-1.249021	0.329218	0.333339
C	-0.350365	1.229379	-0.445477
C	0.92891	1.503962	0.343243
C	1.217774	-0.046421	0.419586
C	2.46665	-0.422923	-0.330136
O	3.34432	-1.128864	0.095362
C	-0.070573	-0.282521	-0.388787
H	-3.267656	-1.116144	1.224952
H	-4.080357	-1.116423	-0.362931
H	-2.513603	-1.949949	-0.159852
H	-1.261764	0.360785	1.427906
H	-0.745431	1.820282	-1.261932
H	1.687365	2.028063	-0.244195
H	0.817965	2.01342	1.305093
H	1.252387	-0.493841	1.416986
H	2.527007	0.016645	-1.354779
H	-0.2195	-1.039612	-1.149193
