19

C	-2.766002	-0.09162	-0.079737
C	-1.273063	0.041134	-0.336785
C	-0.638437	1.222781	0.416719
C	0.880938	1.126322	0.338123
O	1.309536	0.746324	-1.010369
C	1.756883	-0.51659	-0.521063
C	0.685578	-1.264582	0.23537
O	-0.691512	-1.221456	0.023168
C	1.442579	-0.173113	0.931862
H	-2.961835	-0.251928	0.985208
H	-3.291449	0.813421	-0.400289
H	-3.17108	-0.94243	-0.634275
H	-1.096991	0.204355	-1.407347
H	-0.997303	2.153871	-0.035704
H	-0.941916	1.226815	1.471285
H	1.394736	2.039232	0.650377
H	2.616527	-0.965078	-1.007692
H	0.974614	-2.274136	0.514312
H	1.999656	-0.26907	1.854812
