19

C	-2.260701	-1.147144	0.053493
C	-1.201072	-0.225045	-0.571035
C	-1.466415	1.242668	-0.295993
C	-0.515061	1.814524	0.449478
C	0.602652	0.875023	0.727992
C	1.333433	0.387202	-0.526661
O	2.569807	-0.256831	-0.372823
C	0.19852	-0.427357	0.020769
O	0.488077	-1.689994	0.515702
H	-2.017593	-2.196211	-0.129954
H	-2.319527	-0.995888	1.135333
H	-3.246049	-0.936851	-0.37451
H	-1.175684	-0.416073	-1.652823
H	-2.358861	1.738799	-0.661025
H	-0.516663	2.846838	0.782059
H	1.149598	0.879517	1.66549
H	1.219001	0.961163	-1.446768
H	3.210095	0.375739	-0.031577
H	1.444478	-1.801665	0.422483
