19

C	-3.078923	-0.232301	-0.000152
O	-1.941785	0.610229	0.000199
C	-0.752056	-0.035443	9e-05
C	-0.46597	-1.366606	0.000134
O	0.894655	-1.531129	-3.2e-05
C	1.46025	-0.291288	-9.4e-05
C	2.946856	-0.250119	-1.1e-05
C	0.499142	0.676047	-2.4e-05
C	0.64518	2.164416	-4.1e-05
H	-3.096845	-0.871831	0.892942
H	-3.95548	0.417357	-0.000361
H	-3.096357	-0.871753	-0.893308
H	-1.054297	-2.266338	-5.5e-05
H	3.297919	0.783822	-0.000631
H	3.361202	-0.749772	0.883264
H	3.361337	-0.751008	-0.882494
H	1.696299	2.464417	0.000164
H	0.168343	2.612006	-0.879367
H	0.168038	2.612062	0.879099
