19

C	-2.671251	-1.190732	0.018937
C	-1.381542	-0.422696	-0.011651
C	-0.175263	-0.995425	-0.013695
C	1.066135	-0.189397	0.020849
C	2.271855	-0.602712	-0.718052
O	2.192144	-0.778308	0.697421
C	0.814662	1.266738	0.366323
O	-0.300612	1.757061	-0.354499
C	-1.500052	1.084364	-0.026856
H	-3.282479	-0.90391	0.884466
H	-3.277735	-0.986494	-0.872721
H	-2.493485	-2.267564	0.073076
H	-0.059598	-2.076274	-0.011213
H	2.258279	-1.521134	-1.304056
H	2.975794	0.15546	-1.060769
H	0.64986	1.348174	1.453599
H	1.667507	1.896491	0.101905
H	-1.88119	1.42721	0.954055
H	-2.236475	1.39718	-0.776848
