19

C	-2.637171	-0.119427	0.394221
C	-1.180828	-0.005869	0.057398
O	-0.797631	1.282959	-0.383215
C	0.59987	1.436688	-0.125098
C	1.102925	0.016025	0.116118
C	2.524315	-0.175867	0.570791
O	0.801011	-0.719039	-1.126015
C	-0.41363	-1.176539	-0.540394
C	-0.08433	-0.668603	0.844239
H	-3.249721	0.167222	-0.466181
H	-2.891081	-1.148026	0.667227
H	-2.896834	0.535279	1.232204
H	1.075966	1.888022	-1.001201
H	0.763065	2.082841	0.751904
H	3.219189	0.235909	-0.168256
H	2.696428	0.329945	1.526583
H	2.745493	-1.239083	0.691993
H	-0.842228	-2.105384	-0.902276
H	-0.114221	-1.096525	1.838193
