19

C	-0.723185	2.127422	0.182802
C	-0.94101	0.784826	-0.503735
C	-2.303467	0.078324	-0.155384
C	-1.50292	-1.073192	0.460869
O	-0.646933	-1.588905	-0.57019
C	-0.21891	-0.419847	0.148654
C	1.131715	-0.461569	0.804212
C	2.244919	-0.366066	-0.226329
O	3.087034	0.493859	-0.238494
H	-1.400673	2.884801	-0.224199
H	-0.9103	2.059979	1.260906
H	0.302894	2.483254	0.041672
H	-0.736487	0.860914	-1.575849
H	-2.880648	0.643999	0.581128
H	-2.948476	-0.201907	-0.991245
H	-1.774904	-1.756291	1.258272
H	1.251683	0.353466	1.523192
H	1.23212	-1.421046	1.327477
H	2.221134	-1.166192	-0.998419
