19

C	-2.620134	0.252244	-0.66807
C	-1.262734	0.142361	-0.005117
C	-1.110868	-0.806607	1.176835
C	-0.489618	-1.13467	-0.154402
O	0.912383	-1.140919	-0.343282
C	1.686049	-0.047733	-0.112987
O	2.86061	-0.107196	-0.353048
C	1.005115	1.177605	0.473312
C	-0.423925	1.407745	-0.034764
H	-3.145117	-0.707879	-0.666673
H	-3.253493	0.976792	-0.143051
H	-2.526067	0.582409	-1.708937
H	-0.450488	-0.535466	1.992341
H	-1.9766	-1.384056	1.483414
H	-0.909181	-1.948138	-0.735124
H	1.007991	1.055426	1.563067
H	1.651221	2.030255	0.257952
H	-0.901884	2.202588	0.550041
H	-0.383634	1.767318	-1.071234
