19

O	-2.643247	-0.011024	0.128383
C	-1.610843	-0.94159	0.401562
C	-0.368232	-0.66174	-0.452232
C	0.794368	-1.623341	-0.331936
C	1.957337	-0.991163	-0.141567
C	1.775447	0.482489	-0.006533
C	0.927962	0.901342	1.19484
C	0.273194	0.693969	-0.132658
O	-0.32385	1.836596	-0.680515
H	-2.242683	0.867057	0.10479
H	-1.334352	-0.938937	1.468198
H	-2.017461	-1.933048	0.17243
H	-0.720648	-0.641268	-1.498025
H	0.66932	-2.696604	-0.419444
H	2.925155	-1.473436	-0.060564
H	2.502321	1.185802	-0.396459
H	0.785243	0.186906	1.998453
H	1.007284	1.939587	1.499076
H	-0.3328	1.739566	-1.640255
