19

C	-2.592369	-0.068044	0.069064
C	-1.465961	0.793587	-0.421033
C	-1.380849	-0.727298	-0.532804
C	-0.295433	-0.762643	0.565662
O	0.918792	-1.422377	0.311178
C	1.8456	-0.716817	-0.501432
C	2.032527	0.688799	0.033639
O	0.817528	1.407394	-0.08802
C	-0.294579	0.815913	0.564151
H	-2.795795	-0.169879	1.134008
H	-3.483449	-0.057556	-0.550051
H	-1.591719	1.542266	-1.19341
H	-1.427814	-1.372781	-1.401141
H	-0.660653	-1.197866	1.502395
H	2.777283	-1.289238	-0.463721
H	1.502776	-0.66647	-1.546282
H	2.370537	0.643911	1.081587
H	2.775121	1.241668	-0.549762
H	-0.45046	1.304825	1.537633
