19

C	-2.403661	-0.955669	0.145854
C	-1.172111	-0.38299	-0.533553
O	-1.186824	1.097172	-0.487451
C	0.064152	1.468306	0.1723
C	0.144174	0.462392	1.314371
C	0.201073	-0.541926	0.092969
C	1.505618	-1.335029	0.044797
O	2.231377	-0.08449	-0.187015
C	1.005573	0.554638	-0.646622
H	-2.426273	-0.730826	1.214622
H	-3.307213	-0.538377	-0.307996
H	-2.430073	-2.043438	0.018194
H	-1.163258	-0.685065	-1.587828
H	0.091986	2.554456	0.25807
H	1.086545	0.484073	1.85812
H	-0.708963	0.411072	1.990732
H	1.835666	-1.836691	0.959446
H	1.606974	-2.01023	-0.814785
H	0.989284	0.675243	-1.733538
