19

C	2.207336	-1.026314	-0.414072
C	1.249963	0.071556	-0.009588
C	1.6021	1.4738	-0.451933
O	0.746354	-0.028784	1.331249
C	-0.166289	-0.27421	0.280358
C	-0.955638	-1.573178	0.02965
C	-2.157903	-0.722554	-0.487469
C	-1.406603	0.550534	-0.038117
O	-1.694891	1.708852	0.054381
H	2.269553	-1.104628	-1.504664
H	3.212133	-0.804621	-0.038156
H	1.896122	-1.990919	-0.007974
H	1.701506	1.520922	-1.541539
H	0.834351	2.18245	-0.137244
H	2.561421	1.772554	-0.015391
H	-0.51624	-2.265937	-0.690038
H	-1.174541	-2.110261	0.955167
H	-2.316293	-0.75957	-1.569017
H	-3.1175	-0.878337	0.010837
