19

C	-0.236418	1.875126	0.702057
C	0.515439	1.236092	-0.456412
O	1.754506	0.636159	-0.205083
C	1.712046	-0.764186	-0.476815
C	0.846297	-1.495486	0.557664
C	-0.543229	-0.857286	0.691496
C	-1.662609	-1.133423	-0.344759
O	-1.878294	0.287925	-0.547299
C	-0.670145	0.561334	0.15386
H	0.237177	1.897166	1.678506
H	-0.836791	2.745531	0.457883
H	0.416984	1.702243	-1.436477
H	1.342134	-0.938617	-1.498926
H	2.74624	-1.11591	-0.429617
H	0.764477	-2.558139	0.298931
H	1.359951	-1.442807	1.523845
H	-0.926398	-0.959757	1.710401
H	-1.315972	-1.62244	-1.26525
H	-2.565792	-1.632961	0.017213
