19

C	-1.83435	-1.241932	-0.552998
C	-0.587138	-0.540616	-0.107617
O	-0.512896	-0.286798	1.346928
C	0.903895	-0.1926	1.112702
C	1.175092	0.885476	-0.034103
C	1.821511	-0.249246	-0.870557
C	0.864415	-1.163212	-0.083472
C	-0.263063	0.897423	-0.606457
O	-1.139597	1.8572	-0.079781
H	-2.704443	-0.598186	-0.389878
H	-1.774861	-1.47048	-1.622044
H	-1.980543	-2.17624	-0.004216
H	1.532556	-0.253783	1.998979
H	1.656987	1.845158	0.140452
H	1.735901	-0.18666	-1.959445
H	2.861702	-0.446562	-0.597798
H	0.956377	-2.245082	0.002636
H	-0.278082	1.001976	-1.694659
H	-1.26782	1.594882	0.843804
