19

O	3.86965	0.748547	-0.378661
C	3.264645	-0.501274	-0.073098
C	1.822856	-0.412148	0.156839
C	0.643043	-0.298066	0.377019
C	-0.787176	-0.181401	0.607127
C	-1.399124	1.201473	0.234915
C	-2.800593	0.837627	-0.322163
O	-2.948734	-0.573221	-0.186655
C	-1.654903	-1.134469	-0.248057
H	3.608404	1.368701	0.309981
H	3.470708	-1.147522	-0.9337
H	3.744116	-0.974689	0.798903
H	-1.008798	-0.392409	1.659835
H	-1.450229	1.860926	1.103427
H	-0.787349	1.694618	-0.523368
H	-3.621386	1.308221	0.225864
H	-2.883483	1.129544	-1.379344
H	-1.701797	-2.152172	0.145621
H	-1.270007	-1.168277	-1.280179
