19

O	3.506891	-0.004174	0.185447
C	2.134493	-0.019683	0.533759
C	1.236507	-0.445711	-0.64335
C	-0.219437	-0.404615	-0.298522
C	-1.077446	-1.417249	-0.106893
C	-2.478475	-0.978523	0.239059
C	-2.397815	0.559999	0.239572
C	-0.938249	0.885454	-0.104987
O	-0.456546	1.991714	-0.204318
H	3.771801	-0.907382	-0.015816
H	1.943474	-0.672701	1.400188
H	1.883108	1.003187	0.825025
H	1.436408	0.240524	-1.473892
H	1.518069	-1.455152	-0.968923
H	-0.818077	-2.468475	-0.193047
H	-3.200778	-1.362458	-0.491616
H	-2.788642	-1.385107	1.209471
H	-3.056754	1.025019	-0.49938
H	-2.648837	1.004199	1.207143
