19

O	-2.517456	-0.993078	0.30666
C	-1.530805	-0.355693	-0.47813
C	-0.111205	-1.019927	-0.444792
C	0.719387	0.19087	0.012623
C	0.121639	1.341949	-0.869811
C	-1.148511	1.068182	-0.016988
C	-0.166541	0.790461	1.157263
C	2.194058	0.044974	0.18918
O	2.810922	-0.978185	0.021702
H	-2.185456	-1.076775	1.206643
H	-1.949547	-0.339661	-1.488187
H	-0.077726	-1.847284	0.269632
H	0.212648	-1.405671	-1.41397
H	0.572592	2.315032	-0.661543
H	0.074163	1.167862	-1.948603
H	-1.962022	1.788406	0.0656
H	0.252076	1.705769	1.581585
H	-0.466874	0.115631	1.965767
H	2.714291	0.981898	0.500106
