19

C	2.774134	0.911846	-0.405952
C	1.921098	-0.247476	0.078548
C	0.674168	-0.089969	0.995196
O	0.265813	-1.457522	0.596439
C	0.652127	-0.767661	-0.661423
C	-0.15047	0.478252	-0.199988
C	-1.669243	0.481384	-0.071027
C	-2.452212	-0.742611	-0.489278
O	-2.206353	1.480447	0.353904
H	3.432152	1.258116	0.3979
H	3.413819	0.589557	-1.234397
H	2.191383	1.769545	-0.750235
H	2.533285	-1.088238	0.415625
H	0.603637	0.171166	2.051383
H	0.574466	-1.339029	-1.587565
H	0.167108	1.45398	-0.571261
H	-3.51813	-0.565794	-0.340524
H	-2.259794	-0.967742	-1.545446
H	-2.111219	-1.607554	0.085317
