19

O	2.681803	0.002773	-0.308347
C	1.816373	0.790168	0.501875
C	0.37093	0.65475	0.114116
C	-0.517188	1.622954	-0.129378
C	-1.902157	1.08955	-0.438456
C	-1.746511	-0.421536	-0.291246
C	-1.335252	-0.985685	1.058345
C	-0.286838	-0.694491	0.026208
O	0.44227	-1.782783	-0.480774
H	2.374514	-0.908121	-0.219372
H	1.935201	0.522785	1.566186
H	2.14154	1.829171	0.391406
H	-0.305607	2.685478	-0.068513
H	-2.654492	1.497079	0.249848
H	-2.228065	1.371761	-1.448638
H	-2.293706	-1.085875	-0.949606
H	-1.385243	-0.360995	1.944736
H	-1.570811	-2.032944	1.216182
H	0.597935	-1.612519	-1.418049
