19

O	-0.681468	1.976087	-0.069034
C	-0.650807	0.800896	0.694464
C	-1.795266	-0.21319	0.552134
C	-1.851942	-0.726899	-0.851127
C	-0.792207	-1.280397	0.065894
C	0.347977	-0.291075	0.181318
C	1.668456	-0.575071	0.915708
C	2.339102	-0.022533	-0.355948
O	1.059654	0.091598	-1.026231
H	-0.084492	1.812262	-0.814806
H	-0.466802	1.052913	1.746237
H	-2.614786	-0.332763	1.249489
H	-2.667371	-1.408574	-1.068605
H	-1.574161	-0.084234	-1.680563
H	-0.733258	-2.333981	0.312202
H	1.829271	-0.013204	1.837465
H	1.856957	-1.634721	1.099898
H	2.826462	0.952527	-0.243798
H	3.010817	-0.70208	-0.890055
