19

C	1.635394	-0.969005	1.116624
C	1.24563	-0.554025	-0.31509
C	0.095844	-1.3872	-0.920393
C	-1.181302	-0.575549	-0.689007
O	-1.661378	-0.644266	0.680798
C	-1.556577	0.786833	0.831209
C	-0.790328	0.905334	-0.506996
C	0.728034	0.89788	-0.324812
O	1.413254	1.879664	-0.192525
H	0.754215	-1.012545	1.762335
H	2.094339	-1.962503	1.10915
H	2.353691	-0.26096	1.539245
H	2.143779	-0.586079	-0.93953
H	0.237587	-1.515264	-1.99997
H	0.008714	-2.384522	-0.479281
H	-1.983308	-0.808587	-1.397609
H	-2.54082	1.271713	0.815509
H	-1.02474	1.07849	1.74329
H	-1.118637	1.67147	-1.208536
