19

C	2.165428	-1.736269	0.370734
O	1.798399	-0.619268	-0.443486
C	0.59319	-0.088045	-0.190637
C	0.215921	1.20215	0.006908
C	1.110057	2.399152	0.077145
C	-1.221133	1.145795	0.124191
C	-1.594732	-0.153166	0.002808
C	-2.899995	-0.86016	0.053104
O	-0.479802	-0.930986	-0.200527
H	1.485359	-2.578916	0.21354
H	3.174384	-2.017631	0.065383
H	2.16349	-1.460578	1.43231
H	0.984442	2.943205	1.020593
H	2.157744	2.098199	-0.003053
H	0.903776	3.109131	-0.732621
H	-1.885575	1.981339	0.287976
H	-3.109653	-1.395539	-0.880523
H	-2.932893	-1.596716	0.864924
H	-3.702274	-0.137199	0.218063
