19

C	0.127473	2.210144	-0.043277
C	0.070885	0.805344	-0.627333
C	1.095747	-0.153123	-0.008383
O	2.446832	0.049962	0.172777
C	0.432755	-1.540136	-0.085396
O	-0.819052	-1.388961	-0.748524
C	-0.979911	-0.150353	0.026141
C	-2.405056	0.224153	0.284372
C	0.122522	-0.627907	1.056977
H	-0.718543	2.817322	-0.381267
H	0.116764	2.185193	1.052029
H	1.048268	2.717051	-0.348827
H	0.013467	0.829369	-1.723001
H	2.904002	-0.199898	-0.638311
H	0.966373	-2.480524	-0.139692
H	-2.922621	-0.574397	0.823057
H	-2.464413	1.142309	0.876052
H	-2.925507	0.391225	-0.665034
H	0.173484	-0.724397	2.132359
