19

C	-2.906743	-0.912039	-0.255419
C	-1.579426	-0.920724	0.507165
C	-0.495966	-0.106035	-0.178325
O	-0.858451	1.26936	-0.218937
C	0.356839	1.950166	-0.367711
O	1.294343	1.295961	0.466424
C	0.875002	-0.069715	0.570527
C	1.855354	-0.996985	0.0161
C	2.644412	-1.778716	-0.442683
H	-3.281359	0.108804	-0.367545
H	-2.790067	-1.339792	-1.257126
H	-3.664114	-1.498749	0.272393
H	-1.721058	-0.521314	1.518712
H	-1.210329	-1.947959	0.615746
H	-0.328062	-0.474584	-1.202654
H	0.696491	1.924033	-1.418855
H	0.236418	2.983988	-0.032712
H	0.727539	-0.288374	1.636212
H	3.350568	-2.464336	-0.841997
