19

C	-2.476983	-1.22844	-0.468485
C	-1.579987	-0.156039	0.054906
C	-1.915329	1.28864	0.259373
C	-0.699555	0.909638	-0.567152
C	0.382733	0.392438	0.374304
O	-0.551321	-0.54636	0.984673
C	1.511517	-0.351201	-0.285277
C	2.81312	-0.503381	0.372473
O	2.630208	0.448775	-0.677821
H	-3.158957	-0.823118	-1.221327
H	-1.899795	-2.041854	-0.919107
H	-3.081616	-1.650133	0.342553
H	-2.753278	1.664047	-0.320287
H	-1.795245	1.739275	1.24124
H	-0.553322	1.211886	-1.595614
H	0.783047	1.109573	1.102163
H	1.206074	-1.100857	-1.01624
H	2.965781	-0.081647	1.364969
H	3.443124	-1.356423	0.125979
