19

C	-2.745743	-0.211386	-0.430543
O	-1.635599	-0.580187	0.363523
C	-0.421581	-0.550986	-0.310866
C	0.756621	-1.182628	0.497922
O	0.822468	0.044558	1.279485
C	0.527209	0.697255	-0.002319
C	0.055833	2.117379	0.105352
C	1.740756	0.289473	-0.845185
C	1.898212	-0.99513	-0.506236
H	-2.84537	-0.862412	-1.312035
H	-3.63576	-0.320997	0.193029
H	-2.68215	0.83054	-0.774682
H	-0.52941	-0.846006	-1.363223
H	0.656281	-2.095797	1.081717
H	-0.127481	2.543306	-0.886357
H	-0.86721	2.164323	0.689028
H	0.810271	2.730656	0.608332
H	2.267244	0.900327	-1.564784
H	2.59078	-1.742775	-0.863836
