19

O	2.391374	0.325897	-0.275001
C	1.021862	0.177111	0.01151
C	0.325295	1.495648	0.302894
C	-1.21159	1.39588	0.338612
O	-1.742804	0.477426	-0.60371
C	-1.128719	-0.793681	-0.558563
C	-0.801363	-1.398653	0.856585
C	0.682537	-1.19743	0.566935
C	0.375043	-0.811948	-0.893394
H	2.839462	0.554736	0.546948
H	0.677097	1.929239	1.248793
H	0.634623	2.178376	-0.496825
H	-1.547801	1.132964	1.350924
H	-1.656728	2.364048	0.093842
H	-1.742755	-1.443179	-1.182873
H	-1.23713	-0.924325	1.739741
H	-1.063047	-2.460025	0.875587
H	1.491004	-1.824956	0.922805
H	0.838318	-1.135029	-1.816731
