19

C	-2.00992	-1.30558	-0.310688
C	-0.897721	-0.723007	0.563326
C	0.516887	-1.066633	0.103091
C	1.535219	-0.1016	0.772782
O	2.399331	-0.123754	-0.415046
C	1.024495	-0.01635	-0.930804
C	0.658058	1.029772	0.161076
C	-0.799255	0.842935	0.561578
O	-1.706325	1.385714	-0.390851
H	-1.897692	-1.005862	-1.355397
H	-1.991915	-2.399265	-0.262439
H	-2.993556	-0.965394	0.023223
H	-1.043771	-1.071454	1.593004
H	0.809406	-2.107278	-0.035809
H	2.010562	-0.159696	1.752933
H	0.887891	0.031093	-2.010484
H	1.081851	2.032358	0.086551
H	-1.008938	1.255843	1.559089
H	-1.564468	2.336764	-0.425661
