19

O	1.671513	1.615954	-0.249193
C	1.507263	0.214832	-0.284244
C	1.219238	-0.480246	1.092752
C	-0.12864	-1.120558	0.712315
O	0.184451	-1.675759	-0.611707
C	0.229953	-0.272092	-1.019871
C	-0.881216	0.002624	-0.00651
C	-2.343544	0.12187	-0.240741
C	-1.58618	1.237562	0.466829
H	0.907021	1.988102	0.203261
H	2.40428	-0.180279	-0.764511
H	1.963152	-1.234404	1.356679
H	1.149821	0.248483	1.906097
H	-0.610212	-1.822097	1.393843
H	0.137442	-0.09783	-2.091627
H	-2.693293	0.310025	-1.250542
H	-3.012085	-0.490589	0.355506
H	-1.446031	2.166957	-0.077267
H	-1.749046	1.366123	1.532577
