19

O	2.533679	-0.043612	-0.074593
C	1.33354	-0.130963	-0.005436
C	0.521686	-1.360603	-0.417898
C	-0.97067	-0.981093	-0.397346
C	-1.194768	0.241357	-1.312324
C	-0.448765	1.464098	-0.702859
C	0.401879	0.979649	0.483625
O	-0.42913	0.429839	1.510228
C	-1.331753	-0.578145	1.035532
H	0.855128	-1.687763	-1.408538
H	0.740675	-2.179292	0.278489
H	-1.593767	-1.823529	-0.711937
H	-0.828587	0.020562	-2.320358
H	-2.265308	0.448657	-1.403069
H	0.187823	1.961209	-1.441083
H	-1.154035	2.211582	-0.326985
H	0.975332	1.78446	0.945411
H	-1.257912	-1.433614	1.719007
H	-2.362627	-0.197889	1.08421
