19

C	0.504134	2.049748	-0.657994
C	0.499102	0.68642	0.010077
O	0.219027	0.894743	1.383348
C	1.790923	-0.129618	-0.12667
O	1.407139	-1.427715	0.310458
C	0.140724	-1.712173	-0.287962
C	-0.51104	-0.333041	-0.631909
C	-1.884463	-0.189122	-0.187108
C	-3.02875	-0.086635	0.166632
H	0.750978	1.968396	-1.720465
H	-0.480021	2.516264	-0.561784
H	1.236954	2.701433	-0.17418
H	0.368524	0.054712	1.834635
H	2.154132	-0.145241	-1.16732
H	2.585432	0.232497	0.529455
H	0.274318	-2.313233	-1.197165
H	-0.451561	-2.288404	0.42627
H	-0.476156	-0.190132	-1.718263
H	-4.035712	0.014016	0.487969
