19

C	-2.051516	-0.936265	-0.238361
C	-0.622191	-0.488356	-0.064656
C	0.176179	-0.889517	1.201783
C	1.323914	-1.01638	0.171136
O	0.33014	-1.252943	-0.872381
C	1.941315	0.347149	-0.054899
C	1.086526	1.32143	-0.365199
C	-0.394548	1.004546	-0.420174
O	-1.154303	1.880679	0.410966
H	-2.356069	-0.825451	-1.28499
H	-2.167538	-1.985641	0.045243
H	-2.713403	-0.319026	0.37516
H	0.293567	-0.177163	2.021406
H	-0.155111	-1.858717	1.579869
H	2.042191	-1.833876	0.254122
H	3.01159	0.497915	0.04028
H	1.388642	2.346525	-0.558769
H	-0.782219	1.173586	-1.432852
H	-0.726418	1.90432	1.274077
