19

O	-2.214546	-1.237379	0.049373
C	-1.210358	-0.405709	-0.498626
C	-1.433388	1.122191	-0.203662
C	-0.036014	1.807501	-0.172198
C	0.865637	0.660526	0.214224
C	2.229905	0.080095	-0.208295
C	1.506411	-1.302277	-0.434608
C	0.194998	-0.625499	0.006718
O	0.399878	-0.10513	1.333075
H	-2.127945	-1.180671	1.008263
H	-1.23739	-0.595095	-1.578134
H	-2.105672	1.57416	-0.936447
H	-1.915094	1.206475	0.774004
H	0.251401	2.17111	-1.165645
H	-0.003308	2.662617	0.510439
H	2.607986	0.50883	-1.139254
H	3.012366	0.116845	0.552381
H	1.49979	-1.600524	-1.485489
H	1.832056	-2.144644	0.178979
