19

C	-3.729841	-0.206778	-0.181909
C	-2.313765	-0.267007	0.394649
C	-1.245979	0.192459	-0.611677
C	0.139605	0.135639	-0.049801
C	0.990863	-1.101155	0.310159
C	2.230276	-0.235989	-0.074344
O	3.384752	-0.481609	-0.254888
C	1.340145	0.969581	-0.350541
O	0.566288	1.150712	0.85829
H	-4.470436	-0.535931	0.552935
H	-3.991179	0.813166	-0.484579
H	-3.827226	-0.848964	-1.064399
H	-2.246778	0.36088	1.29069
H	-2.089331	-1.291376	0.717861
H	-1.290141	-0.435027	-1.511371
H	-1.451589	1.221921	-0.927159
H	0.914728	-1.441702	1.34438
H	0.894562	-1.94955	-0.374594
H	1.481242	1.833253	-0.990189
