19

C	-2.32036	-1.08264	0.118343
O	-0.971134	-1.368797	-0.230456
C	-0.132719	-0.295675	-0.19488
C	1.365269	-0.366697	-0.525556
C	2.269579	-1.20946	0.361351
C	1.139796	1.125356	-0.17861
C	-0.281634	1.151815	-0.813077
O	-0.923781	1.727112	0.362699
C	0.072842	0.818701	0.916954
H	-2.763815	-0.34996	-0.566565
H	-2.866654	-2.025161	0.048411
H	-2.394971	-0.690642	1.139846
H	1.57053	-0.547826	-1.587046
H	3.325361	-0.990761	0.169734
H	2.078136	-1.025393	1.42403
H	2.110832	-2.276488	0.175274
H	1.845658	1.952344	-0.165401
H	-0.595684	1.481744	-1.802924
H	0.173298	0.757224	1.999554
