19

O	3.48722	-0.128213	-0.11763
C	2.178597	0.420472	-0.112391
C	1.19909	-0.728483	0.116878
C	-0.228643	-0.289891	0.125007
C	-1.522211	-0.928912	0.635529
C	-2.216756	-0.732683	-0.710682
C	-1.197892	0.415613	-0.918013
O	-1.582697	1.406387	0.075674
C	-1.095984	0.491242	1.055753
H	4.113399	0.587062	-0.26148
H	2.057926	1.17167	0.683519
H	1.948993	0.918338	-1.068159
H	1.365697	-1.488557	-0.65719
H	1.438325	-1.20772	1.074216
H	-1.626178	-1.739138	1.346628
H	-2.024348	-1.571261	-1.384953
H	-3.274548	-0.452198	-0.734642
H	-0.966014	0.844572	-1.891124
H	-0.966638	0.827703	2.076343
