19

C	-1.92707	0.498692	-0.391028
O	-1.818344	-0.9234	-0.164329
C	-0.656158	-0.744942	0.663815
C	-0.804973	0.806556	0.628617
C	0.436202	1.593701	0.153711
C	1.491435	0.618139	-0.369022
C	1.826213	-0.48448	0.660518
C	0.630876	-1.183655	-0.016378
O	0.827968	-0.371931	-1.209005
H	-1.681126	0.76203	-1.426027
H	-2.926659	0.874137	-0.141233
H	-0.768107	-1.237689	1.639054
H	-1.201879	1.214538	1.559168
H	0.153288	2.291922	-0.642476
H	0.863636	2.19361	0.96573
H	2.316135	1.113653	-0.888027
H	2.775837	-0.978223	0.451109
H	1.75062	-0.241384	1.723905
H	0.662104	-2.254013	-0.235924
