19

C	2.977228	-0.115868	-0.0435
C	1.636804	-0.776107	0.165603
O	0.744912	-0.85149	-0.953035
C	0.344181	-0.066739	0.179825
C	0.289395	1.448872	-0.032668
O	-1.009931	1.998583	0.037517
C	-0.823706	-0.667589	0.965356
C	-2.055023	-0.727183	0.180249
C	-3.054735	-0.784363	-0.485827
H	3.644773	-0.789087	-0.5912
H	2.894207	0.813249	-0.610035
H	3.445476	0.104286	0.922076
H	1.686812	-1.705338	0.739146
H	0.857568	1.949157	0.760634
H	0.780097	1.673273	-0.989736
H	-1.581298	1.516665	-0.572042
H	-0.554196	-1.681055	1.281607
H	-0.993836	-0.075048	1.871745
H	-3.94431	-0.848976	-1.062273
