19

O	2.777375	-0.368537	0.092426
C	1.606774	-0.240528	-0.185494
C	1.04881	1.115571	-0.609219
C	0.049087	1.70372	0.41603
C	-1.399987	1.226	0.232229
C	-1.594972	-0.273715	0.034377
O	-2.484265	-0.6996	-0.666258
C	-0.622896	-1.222118	0.724787
C	0.659701	-1.435071	-0.118912
H	1.909708	1.777783	-0.722921
H	0.558198	1.025643	-1.587707
H	0.403607	1.489944	1.431009
H	0.058686	2.79407	0.323836
H	-1.99103	1.5076	1.115284
H	-1.871848	1.717929	-0.623876
H	-0.354917	-0.858575	1.723071
H	-1.131195	-2.183177	0.829578
H	1.234326	-2.272434	0.282539
H	0.360484	-1.696849	-1.142945
