19

C	3.125893	-0.244127	-0.357749
O	1.973518	-0.684857	0.326186
C	0.755487	-0.150362	-0.154732
C	0.533575	1.307931	0.281592
C	-0.87168	1.763642	0.000737
C	-1.903598	0.924703	-0.155421
C	-1.752711	-0.54177	-0.031267
O	-2.683525	-1.300469	-0.210836
C	-0.369044	-1.03961	0.372866
H	3.326003	0.826573	-0.206517
H	3.97037	-0.811681	0.040327
H	3.050935	-0.432495	-1.439928
H	0.749954	-0.184359	-1.25801
H	0.742953	1.384788	1.358871
H	1.243403	1.979409	-0.213627
H	-1.035619	2.836066	-0.077463
H	-2.906258	1.279845	-0.371072
H	-0.320163	-1.046228	1.470967
H	-0.249061	-2.071752	0.037489
