19

C	2.132462	-1.087248	-0.543459
C	1.095774	-0.228246	0.1349
C	1.462632	1.04985	0.848196
C	0.654339	1.096778	-0.425567
O	-0.713863	1.381932	-0.297374
C	-1.522783	0.297008	-0.665784
C	-2.338173	-0.339158	0.428971
C	-1.096181	-1.021714	-0.082688
O	0.041112	-0.953199	0.734807
H	1.682606	-1.690076	-1.340021
H	2.91946	-0.470765	-0.988319
H	2.598157	-1.767395	0.177188
H	0.923522	1.264508	1.763436
H	2.493908	1.384998	0.818418
H	1.110875	1.477124	-1.338063
H	-1.920447	0.349129	-1.677316
H	-2.264878	0.118353	1.408669
H	-3.30322	-0.763952	0.175589
H	-1.18639	-1.935404	-0.666453
