19

O	-2.809704	-0.463401	-0.347409
C	-1.446335	-0.863735	-0.284026
C	-0.749731	0.029107	0.739836
C	-0.724813	1.531124	0.273065
C	0.5948	1.643318	-0.489778
C	1.40336	0.670446	-0.087938
C	2.313189	-0.444831	-0.536221
O	1.400406	-1.389448	0.109012
C	0.756306	-0.28838	0.854153
H	-3.239202	-0.978657	-1.035994
H	-1.35029	-1.915178	0.022729
H	-0.953729	-0.763502	-1.262046
H	-1.271891	-0.082996	1.694837
H	-1.587162	1.752537	-0.362593
H	-0.782718	2.215943	1.12896
H	0.753718	2.340528	-1.304066
H	2.407879	-0.614633	-1.613834
H	3.305506	-0.48271	-0.068004
H	1.111614	-0.31083	1.892646
