19

C	0.892395	1.825024	-0.616959
C	0.130592	0.605596	-0.130927
C	0.61538	-0.716241	-0.692321
C	1.975594	-1.145966	-0.188445
O	2.638335	-0.56229	0.631455
C	-0.425277	0.625792	1.247641
C	-1.391916	0.816608	0.08285
C	-2.379841	-0.238819	-0.216316
O	-2.250497	-1.417175	0.040855
H	0.839811	1.916133	-1.707854
H	0.490589	2.74515	-0.182591
H	1.943828	1.745289	-0.327447
H	-0.083446	-1.528079	-0.452516
H	0.666284	-0.694304	-1.791396
H	2.33941	-2.096204	-0.643273
H	-0.522605	-0.319802	1.770018
H	-0.234131	1.486695	1.878179
H	-1.740782	1.82466	-0.115978
H	-3.303218	0.124224	-0.718767
