19

C	-1.105474	1.724188	-0.052295
C	-0.937703	0.223065	-0.00406
O	-2.234408	-0.34145	-0.02234
C	0.0024	-0.552607	-0.974875
C	1.365107	0.11139	-1.213105
C	1.973918	0.483492	0.122294
C	1.290805	0.211023	1.234371
C	-0.031075	-0.493396	1.052549
O	0.152658	-1.570076	0.067145
H	-1.741965	2.049852	0.776149
H	-0.149087	2.243352	0.015814
H	-1.602985	2.01152	-0.983887
H	-2.11347	-1.299291	0.001939
H	-0.452752	-0.955264	-1.884854
H	2.024874	-0.57342	-1.762373
H	1.246191	0.999064	-1.849489
H	2.951229	0.9565	0.139775
H	1.644875	0.466445	2.227147
H	-0.500774	-0.849479	1.972063
