19

C	-2.816541	-0.354316	-0.302848
C	-1.736258	0.025142	0.719076
C	-0.349728	0.084125	0.115315
C	0.044832	1.24378	-0.836836
O	1.199772	1.579581	-0.023556
C	0.91709	0.518155	0.89537
C	1.568419	-0.859769	0.571286
O	1.58694	-1.007995	-0.849891
C	0.360427	-1.272781	-0.174157
H	-2.862332	0.373733	-1.119722
H	-2.62151	-1.336366	-0.746551
H	-3.804512	-0.391146	0.165312
H	-1.974951	0.998594	1.165174
H	-1.739768	-0.699144	1.544755
H	0.3297	0.967377	-1.855517
H	-0.675398	2.071492	-0.855312
H	0.915351	0.817677	1.947482
H	2.298007	-1.430504	1.135331
H	-0.087728	-2.250413	-0.316616
