19

C	-0.684337	2.079316	-0.044712
C	-0.832734	0.679116	-0.615844
C	-1.471013	-0.44503	0.227194
C	-0.813201	-1.471783	-0.795275
C	0.299863	-0.405177	-0.627573
O	1.663461	-0.080916	-0.948742
C	1.867675	0.28843	0.466524
C	0.631109	-0.602501	0.821105
O	-0.646298	-0.421041	1.439997
H	-1.618754	2.637685	-0.167896
H	-0.445939	2.05638	1.020467
H	0.098655	2.635091	-0.571379
H	-1.284282	0.716949	-1.61183
H	-2.523978	-0.492261	0.49474
H	-0.594487	-2.483645	-0.451257
H	-1.363685	-1.47891	-1.737224
H	2.832877	-0.071324	0.830253
H	1.774721	1.365525	0.615801
H	1.003399	-1.604059	1.059772
