19

O	-0.523358	2.03735	0.014359
C	0.000788	0.905632	-0.636507
C	1.468004	0.590464	-0.278685
C	1.590395	-0.876296	-0.788438
C	0.599549	-1.160531	0.384001
C	1.342353	-0.019514	1.147178
C	-0.623757	-0.413215	-0.104336
C	-1.922817	-0.950376	-0.496662
O	-1.756748	-0.255447	0.757167
H	-1.287887	1.725521	0.519751
H	-0.125009	1.011966	-1.723582
H	2.203048	1.356341	-0.522212
H	1.264486	-1.103792	-1.808733
H	2.5784	-1.303026	-0.606005
H	0.445853	-2.153378	0.805812
H	0.784255	0.546682	1.895459
H	2.302638	-0.348779	1.548863
H	-2.524707	-0.427803	-1.239092
H	-2.127312	-2.015925	-0.401767
