19

O	-2.130285	-1.277908	-0.433287
C	-1.304859	-0.442995	0.371207
C	-1.12048	0.930373	-0.292829
C	-0.324258	2.021895	0.374267
C	0.348658	1.114195	-0.623437
C	1.09874	-0.123931	-0.13743
O	2.070967	-0.640403	-0.996006
C	1.183877	-0.394982	1.341422
C	0.096833	-1.048805	0.504299
H	-1.68767	-1.381839	-1.283766
H	-1.829957	-0.37685	1.330055
H	-1.912648	1.219398	-0.975
H	-0.538018	3.035896	0.051519
H	-0.077395	1.952525	1.427238
H	0.684035	1.518133	-1.571651
H	2.881314	-0.135754	-0.865805
H	1.9786	-1.066538	1.650307
H	0.945298	0.370906	2.070014
H	0.159918	-2.123885	0.376444
