19

C	0.463781	1.368213	1.171611
C	0.267304	0.564577	-0.093478
C	1.54719	0.316804	-0.898424
C	2.516105	-0.513435	-0.192825
C	3.300594	-1.201568	0.403498
O	-0.842934	0.937789	-0.921352
C	-0.853475	-0.367963	-0.30557
C	-1.99059	-0.625834	0.651168
O	-3.211425	-0.783088	-0.05399
H	-0.478414	1.553865	1.687367
H	1.145812	0.847379	1.849712
H	0.910314	2.338217	0.926158
H	1.272973	-0.147322	-1.852069
H	1.998518	1.28755	-1.143574
H	3.999734	-1.810296	0.921406
H	-0.697038	-1.181401	-1.017033
H	-1.818926	-1.568406	1.182325
H	-2.062597	0.174795	1.398789
H	-3.340958	0.023248	-0.566225
