19

C	-4.089712	0.993699	-0.000205
C	-3.26624	-0.281767	0.000446
O	-1.893747	0.07266	-0.000338
C	-1.047525	-1.055426	0.000201
C	0.347756	-0.644096	-0.000239
C	1.51575	-0.340763	-0.000511
C	2.917485	0.033781	-0.000159
C	3.189312	1.524086	0.000291
O	3.797376	-0.800765	5.6e-05
H	-3.866275	1.594573	0.885601
H	-3.867098	1.593166	-0.88717
H	-5.157429	0.755677	0.000478
H	-3.497774	-0.895145	0.887683
H	-3.498452	-0.896487	-0.885684
H	-1.236827	-1.690023	0.884169
H	-1.237082	-1.691038	-0.882976
H	2.73213	1.98928	0.880216
H	4.266281	1.698011	0.00059
H	2.732537	1.989736	-0.879603
