19

C	2.783925	0.814908	-0.205848
C	2.053785	-0.366321	0.448869
C	0.582546	-0.35233	0.173221
O	0.128153	-0.735887	-1.128479
C	-0.426204	-1.424849	-0.002124
C	-1.534797	-0.515661	0.603884
O	-2.314897	0.243134	-0.330044
C	-1.390413	1.361473	-0.256786
C	-0.49265	0.614413	0.756545
H	3.854936	0.780818	0.013087
H	2.655908	0.793734	-1.291916
H	2.397913	1.772128	0.160348
H	2.464491	-1.313049	0.080872
H	2.210546	-0.348204	1.534726
H	-0.338549	-2.506566	0.000931
H	-2.111851	-0.943228	1.42785
H	-0.942651	1.586432	-1.228615
H	-1.885401	2.251187	0.14924
H	-0.268541	1.078975	1.715101
