19

O	-4.128286	-0.262197	0.33745
C	-3.131652	-0.201433	-0.334425
C	-1.835939	0.450842	0.081385
C	-0.648122	-0.508088	-0.047475
C	0.701948	0.2035	-0.038186
O	0.787213	1.412751	-0.096798
C	1.90506	-0.67205	0.028976
C	3.108658	-0.144504	0.801544
C	3.16157	-0.191485	-0.684688
H	-3.106023	-0.645849	-1.359438
H	-1.652466	1.308665	-0.579238
H	-1.936479	0.834418	1.099335
H	-0.657035	-1.26555	0.745947
H	-0.70294	-1.075767	-0.989464
H	1.723722	-1.740559	0.059258
H	2.975339	0.825214	1.266864
H	3.679996	-0.866452	1.373257
H	3.063638	0.747108	-1.217706
H	3.771687	-0.946352	-1.166817
