19

C	2.557948	0.366712	-0.367113
C	1.274863	-0.421171	-0.522612
C	0.744636	-1.193686	0.63679
C	-0.446875	-2.055682	0.184454
C	-1.145618	-0.727504	-0.194229
O	-2.283157	-0.433111	-0.462648
C	0.025567	0.116598	0.181295
C	-0.178383	1.50819	0.725959
O	-0.871458	2.303476	-0.221827
H	2.699202	0.715757	0.660246
H	3.417964	-0.259623	-0.624816
H	2.568093	1.241777	-1.02446
H	1.144637	-0.853155	-1.514118
H	1.304964	-1.33295	1.552637
H	-0.254997	-2.781738	-0.61127
H	-0.990715	-2.547198	0.996316
H	-0.729961	1.453385	1.678257
H	0.770991	2.012062	0.928789
H	-1.686076	1.828025	-0.433042
