19

C	-2.736323	-0.685454	-0.409843
O	-1.32928	-0.70667	-0.358585
C	-0.778421	0.070411	0.676823
C	-0.660054	1.589636	0.274707
C	0.657227	1.640662	-0.49995
C	1.409926	0.622582	-0.105162
C	2.272231	-0.540019	-0.528043
O	1.345151	-1.431211	0.168043
C	0.718284	-0.297579	0.841965
H	-3.181157	-1.04196	0.532548
H	-3.139387	0.316886	-0.620336
H	-3.037047	-1.356085	-1.218339
H	-1.358567	-0.065216	1.602495
H	-1.509757	1.902194	-0.340892
H	-0.664843	2.231569	1.166047
H	0.842165	2.330904	-1.314036
H	2.332588	-0.747682	-1.601629
H	3.274826	-0.593974	-0.0839
H	1.016983	-0.275024	1.899393
