19

C	-3.015734	-0.33708	-0.558237
C	-1.713044	0.449009	-0.396582
C	-1.848077	1.593307	0.628762
C	-0.57852	-0.47076	0.025311
O	-0.695631	-1.565685	0.516373
O	0.6218	0.113306	-0.199941
C	1.760259	-0.667708	0.215792
C	2.970996	0.085706	-0.061188
C	3.990485	0.682078	-0.276213
H	-2.918484	-1.120852	-1.314327
H	-3.294435	-0.819321	0.382407
H	-3.825645	0.333753	-0.859711
H	-1.420356	0.891973	-1.355558
H	-0.913631	2.151565	0.723536
H	-2.634391	2.285921	0.314815
H	-2.11876	1.20051	1.614575
H	1.670929	-0.898848	1.282798
H	1.756025	-1.624224	-0.318065
H	4.891211	1.211233	-0.467796
