19

C	2.532338	0.702487	0.29574
C	1.671118	-0.531588	0.257298
O	1.139938	-0.916128	-1.051012
C	0.252167	-0.517262	-0.043179
C	-1.010762	-1.216259	0.476945
C	-1.793569	-0.602124	-0.706507
C	-0.898826	0.516764	-0.09417
C	-0.905982	1.991209	-0.340501
O	-1.280013	0.013164	1.258198
H	2.640017	1.056539	1.326556
H	3.532802	0.484478	-0.091934
H	2.097645	1.503835	-0.306013
H	2.053481	-1.383664	0.821455
H	-1.138505	-2.174107	0.978557
H	-1.558785	-0.950464	-1.715209
H	-2.861896	-0.473048	-0.525092
H	-1.918663	2.393027	-0.241594
H	-0.25747	2.505363	0.374631
H	-0.546941	2.202398	-1.352588
