19

C	-3.070362	-0.403768	-0.510748
C	-1.936312	-0.815944	0.436105
C	-0.56463	-0.610376	-0.175475
C	0.631432	-0.512127	0.802803
C	1.879448	-0.400161	-0.020801
O	2.964166	-0.881861	-0.069117
O	1.37397	0.61684	-0.825698
C	0.160128	0.678844	-0.005815
C	-0.326163	2.041571	0.353261
H	-4.047176	-0.591789	-0.055676
H	-3.013715	0.66019	-0.761419
H	-3.024026	-0.967639	-1.448188
H	-2.012425	-0.257898	1.3773
H	-2.044773	-1.874016	0.703426
H	-0.396581	-1.142048	-1.110131
H	0.548835	-0.758906	1.851706
H	0.461103	2.614746	0.851328
H	-0.628412	2.58743	-0.546816
H	-1.189166	1.981861	1.021002
