19

C	2.492491	-1.145049	0.553707
C	1.877919	-0.073083	-0.320904
O	1.474305	1.130983	0.424199
C	0.20536	1.195712	-0.312321
C	-1.159874	1.129921	0.387644
C	-1.843978	-0.093126	-0.298349
O	-2.69203	-0.727045	0.649256
C	-0.647169	-0.969004	-0.702084
C	0.437446	-0.207472	-0.758318
H	2.73769	-2.027986	-0.046108
H	3.415909	-0.775582	1.010103
H	1.799172	-1.435233	1.346798
H	2.566832	0.216026	-1.127668
H	0.265193	1.992598	-1.065137
H	-1.018202	0.866623	1.440159
H	-1.754102	2.045084	0.327897
H	-2.437685	0.228753	-1.168787
H	-3.282613	-1.321675	0.176867
H	-0.723565	-2.047505	-0.77802
