19

C	-2.305509	-1.036092	-0.007612
O	-2.644751	0.350045	0.085667
C	-1.337052	0.000137	-0.378254
C	-0.186829	0.3815	0.515669
C	0.371917	1.824313	0.276682
C	1.592826	1.229195	-0.489099
C	1.175218	-0.147718	0.028609
C	1.995241	-1.213744	0.604598
O	1.355839	-1.36637	-0.670911
H	-2.19767	-1.555247	0.944037
H	-2.824641	-1.595862	-0.783972
H	-1.18298	0.184781	-1.443177
H	-0.445925	0.144987	1.551512
H	-0.278489	2.49166	-0.291494
H	0.653536	2.31964	1.207587
H	1.490175	1.299256	-1.575871
H	2.586091	1.587629	-0.209079
H	3.081582	-1.136793	0.573687
H	1.594742	-1.835	1.405162
