19

C	-1.811245	1.679361	-0.139742
C	-0.747168	0.67987	0.165509
C	-0.759122	-0.660656	0.144615
C	-1.832556	-1.638198	-0.190434
C	0.703416	-1.043306	0.379268
O	1.411282	-0.767435	-0.858053
C	1.489176	0.662502	-0.882434
C	0.715022	1.042245	0.420608
O	1.164499	-0.041842	1.254243
H	-1.95141	2.380561	0.692713
H	-1.553156	2.285236	-1.018384
H	-2.772589	1.199392	-0.341349
H	-1.980897	-2.365126	0.618039
H	-2.790294	-1.145732	-0.379388
H	-1.56752	-2.212816	-1.08712
H	0.954344	-2.04643	0.720684
H	2.537453	0.975209	-0.829048
H	1.028134	1.062028	-1.791874
H	0.944553	2.010987	0.861866
