19

O	-2.809997	-0.483687	0.071051
C	-1.947619	0.589709	-0.282911
C	-0.494653	0.228661	-0.176383
C	0.136321	-0.951668	-0.911935
C	1.53798	-0.791533	-0.286078
C	1.884574	0.679076	-0.612559
C	0.624112	1.262426	0.016509
C	0.289529	0.288811	1.122609
O	1.253546	-0.74537	1.125611
H	-2.554105	-0.777831	0.951838
H	-2.20837	0.84132	-1.317384
H	-2.152178	1.485893	0.326171
H	-0.333262	-1.903621	-0.65343
H	0.143261	-0.832731	-1.999483
H	2.286221	-1.555413	-0.4854
H	2.799181	1.0084	-0.111851
H	1.968823	0.863484	-1.686994
H	0.426799	2.323522	0.092026
H	-0.10623	0.546534	2.095692
