19

C	-1.436031	1.92392	-0.26536
C	-0.870266	0.491387	-0.341528
C	-1.884616	-0.508738	-0.018666
C	-2.729904	-1.310513	0.277104
C	0.345213	0.352897	0.593191
O	1.393876	1.283163	0.238818
C	2.279212	0.224497	-0.184888
C	1.311637	-0.848568	0.362572
O	0.944343	-1.930371	-0.442136
H	-0.642497	2.641425	-0.485667
H	-2.250105	2.055088	-0.982281
H	-1.827235	2.127637	0.735841
H	-0.524638	0.328434	-1.373572
H	-3.467544	-2.032393	0.52683
H	0.01788	0.499807	1.629745
H	2.401923	0.194375	-1.277291
H	3.266622	0.299458	0.283074
H	1.652435	-1.283621	1.304016
H	0.575921	-1.601831	-1.268702
