19

C	-0.343052	2.025293	-0.504836
C	-0.390872	0.576276	-0.10064
O	-1.214677	0.353165	1.072446
C	-2.013727	-0.641852	0.391661
C	-1.102658	-0.612	-0.84099
C	0.179875	-1.480927	-0.688537
C	0.888577	-0.273618	-0.053094
C	2.284469	0.150498	-0.195762
O	1.764302	-0.327871	1.051246
H	0.143361	2.615323	0.280238
H	0.219641	2.158016	-1.434107
H	-1.353194	2.420818	-0.644968
H	-2.060771	-1.588759	0.943236
H	-3.035118	-0.278372	0.217914
H	-1.55158	-0.53338	-1.829514
H	0.071165	-2.344271	-0.026239
H	0.620936	-1.813979	-1.631292
H	2.995465	-0.509404	-0.69257
H	2.537425	1.209643	-0.219043
