19

O	2.417265	-1.530413	-0.018898
C	2.465962	-0.133123	-0.23788
C	1.148596	0.618356	4.2e-05
O	1.17165	1.807454	0.249275
C	-0.109629	-0.162235	-0.118056
C	-1.31275	0.620917	-0.623865
C	-2.495319	-0.33338	-0.822415
C	-2.405153	-0.711865	0.696559
C	-1.224899	0.255375	0.835573
H	2.322067	-1.68166	0.926768
H	3.24477	0.368047	0.351873
H	2.727126	0.000918	-1.295348
H	0.003736	-1.208784	-0.381373
H	-1.155957	1.586905	-1.086355
H	-3.424535	0.187784	-1.062747
H	-2.349528	-1.140574	-1.546867
H	-3.2858	-0.386907	1.255011
H	-2.205108	-1.760295	0.938795
H	-0.988946	0.893969	1.677476
