19

O	0.211286	2.336253	0.093397
C	0.213191	1.220332	-0.787086
C	0.338375	-0.035076	0.064234
C	-0.860823	-0.206767	1.012898
C	-2.10948	-0.463416	0.303351
C	-3.120075	-0.681453	-0.310885
C	1.735152	-0.186123	0.715197
O	2.08833	-1.252599	-0.189968
C	0.758525	-1.282612	-0.746396
H	0.057666	3.132352	-0.422921
H	-0.713029	1.171704	-1.378814
H	1.062803	1.266921	-1.485856
H	-0.659373	-1.034849	1.70338
H	-0.957746	0.700466	1.620051
H	-4.022513	-0.874293	-0.836102
H	2.401436	0.678365	0.624897
H	1.723515	-0.521837	1.761031
H	0.764017	-1.17711	-1.83847
H	0.217106	-2.200271	-0.4825
