19

C	2.039354	-1.02939	-0.503723
C	0.680112	-0.517557	-0.09143
O	0.203272	-0.967033	1.187133
C	-0.481949	-1.421803	-0.008918
C	-1.847105	-0.895586	-0.255472
C	-2.087145	0.415299	-0.222333
C	-0.995971	1.405842	0.084831
C	0.399618	0.951993	-0.386059
O	1.414182	1.792076	0.154474
H	2.826767	-0.427392	-0.042439
H	2.163811	-2.071129	-0.198946
H	2.163711	-0.962057	-1.589936
H	-0.317662	-2.478031	-0.216391
H	-2.636405	-1.61192	-0.460093
H	-3.091717	0.795544	-0.383973
H	-1.21294	2.384225	-0.353929
H	-0.951592	1.557998	1.172324
H	0.474483	1.088712	-1.472221
H	1.400431	1.670914	1.111375
