19

C	3.265237	0.090729	-0.121033
C	1.899988	-0.548085	-0.386326
C	0.761692	0.068084	0.443532
C	0.299765	1.455463	0.046118
C	-1.027074	1.563882	-0.056152
C	-1.729111	0.286694	0.323651
O	-2.757591	-0.110438	-0.552232
C	-0.555722	-0.707786	0.320607
O	-0.69375	-1.888231	0.121523
H	4.042779	-0.387993	-0.723806
H	3.270664	1.158057	-0.36632
H	3.551618	-0.008831	0.931917
H	1.646588	-0.465341	-1.449983
H	1.934161	-1.619309	-0.161234
H	1.061516	0.050367	1.504717
H	0.999825	2.264126	-0.131561
H	-1.572173	2.458585	-0.331259
H	-2.115628	0.360493	1.358874
H	-2.697267	-1.07469	-0.608054
