19

O	-1.67348	-1.327509	-0.334097
C	-0.619501	-0.482556	-0.764821
C	0.827833	-0.988556	-0.64594
C	0.968677	-1.286373	0.873777
C	0.828838	0.235501	1.012555
C	1.526332	0.422434	-0.368461
C	0.565675	1.580888	-0.705186
C	-0.417861	0.753809	0.146735
O	-1.565993	1.29592	0.692598
H	-1.356017	-1.875448	0.391182
H	-0.887724	-0.188401	-1.78346
H	1.193317	-1.683181	-1.401851
H	0.260182	-1.96278	1.370793
H	1.979379	-1.619566	1.126558
H	1.088949	0.806818	1.902427
H	2.606242	0.478266	-0.487046
H	0.889514	2.497689	-0.204689
H	0.290445	1.798614	-1.742212
H	-2.228456	0.589821	0.668334
