19

C	2.438658	-1.640492	-0.62064
C	2.165985	-0.855528	0.65324
O	0.866229	-0.225599	0.616523
C	0.796129	0.964382	0.002898
O	1.730468	1.536177	-0.49962
C	-0.612322	1.557909	0.065168
C	-1.713363	0.607667	0.010129
C	-2.637957	-0.159695	-0.048397
C	-3.74982	-1.096713	-0.115237
H	3.39114	-2.172399	-0.529943
H	1.648988	-2.375484	-0.800443
H	2.500726	-0.968565	-1.479634
H	2.123982	-1.51152	1.525724
H	2.925433	-0.086376	0.812175
H	-0.657122	2.136222	0.999321
H	-0.671268	2.289187	-0.746573
H	-3.411899	-2.12427	0.059059
H	-4.510916	-0.866662	0.638551
H	-4.236505	-1.069945	-1.096424
