19

C	-2.416778	0.015008	-0.311462
C	-0.932924	0.08219	-0.051677
C	-0.26136	1.439701	-0.274433
C	1.181739	1.344122	0.285402
C	1.612367	-0.111739	0.13896
O	1.221072	-0.572	-1.197939
C	0.001601	-1.058627	-0.635343
C	0.528825	-1.05662	0.791123
O	-0.590297	-0.348159	1.319499
H	-2.634826	0.306399	-1.344448
H	-2.795591	-0.998079	-0.14757
H	-2.955958	0.693254	0.357887
H	-0.242753	1.661492	-1.345719
H	-0.830349	2.230845	0.223245
H	1.863964	2.005721	-0.255504
H	1.206418	1.624087	1.342906
H	2.668298	-0.307801	0.337456
H	-0.460876	-1.875471	-1.192209
H	0.854663	-1.903379	1.396063
