19

O	1.806037	-1.441562	-0.715655
C	1.114193	-0.485335	0.033462
C	1.943385	0.71004	0.598334
C	1.085707	1.701362	-0.25133
C	0.17544	0.532562	-0.691317
C	-0.955115	0.188507	0.342572
C	-0.058962	-0.960517	0.920885
C	-2.243655	-0.280105	-0.27213
O	-3.332533	0.17864	-0.038696
H	2.432611	-1.888608	-0.135056
H	1.888861	0.844046	1.682237
H	2.993296	0.666423	0.300037
H	0.594615	2.512306	0.291989
H	1.646749	2.133679	-1.082863
H	-0.088934	0.439288	-1.745519
H	-1.174514	0.997485	1.042315
H	0.079236	-0.974492	2.005367
H	-0.406902	-1.944408	0.589613
H	-2.119021	-1.12143	-0.996174
