19

C	-1.98893	1.552866	0.00056
C	-1.03083	0.395499	0.022859
C	-0.935572	-0.642031	1.172142
C	-0.436274	-1.472946	-0.02763
O	-1.406638	-0.74018	-0.851311
C	0.895153	-0.82874	-0.461369
C	1.586186	0.170046	0.435155
O	2.881063	0.587351	0.119878
C	0.433864	0.630191	-0.423353
H	-1.669521	2.322371	0.710527
H	-2.021213	2.003135	-0.997152
H	-2.998713	1.228655	0.265001
H	-0.306702	-0.466014	2.046073
H	-1.932705	-0.963922	1.471961
H	-0.533737	-2.555832	-0.091198
H	1.436023	-1.247511	-1.303452
H	1.499237	0.114318	1.51342
H	2.967834	0.632997	-0.838179
H	0.622507	1.32512	-1.235722
