19

O	-1.169504	1.829964	-0.410953
C	-1.114838	0.555102	0.115041
C	-0.374241	0.168106	1.357671
C	-0.027821	-0.533579	0.052964
C	-1.105958	-1.578593	-0.261485
C	-2.200615	-0.457123	-0.223354
C	1.320074	-0.448285	-0.557261
C	2.570357	-0.431477	0.218509
O	2.026593	0.780919	-0.314129
H	-0.329381	2.267474	-0.231143
H	0.37085	0.894343	1.670914
H	-0.850484	-0.374035	2.174054
H	-0.999422	-2.018398	-1.256552
H	-1.21151	-2.388091	0.468718
H	-2.630707	-0.273778	-1.209982
H	-3.010407	-0.564436	0.505189
H	1.380024	-0.788176	-1.593095
H	2.521451	-0.527062	1.30177
H	3.501121	-0.759808	-0.241728
