19

C	-1.796345	-0.992639	-1.001587
C	-1.215653	0.02356	-0.004625
C	-1.762201	-0.229066	1.406487
O	-1.661751	1.341774	-0.344492
C	0.29669	-0.01576	-0.005632
C	1.123154	1.065259	-0.040296
O	2.429112	0.681619	-0.019421
C	2.437118	-0.674734	0.033332
C	1.16951	-1.159835	0.043302
H	-1.418739	-0.803021	-2.012385
H	-1.526674	-2.018846	-0.734191
H	-2.886906	-0.912435	-1.015335
H	-1.389798	0.536308	2.091536
H	-2.85548	-0.190122	1.397773
H	-1.446125	-1.20888	1.77449
H	-1.364533	1.521392	-1.243628
H	0.940563	2.125514	-0.066307
H	3.410021	-1.13776	0.053326
H	0.885156	-2.200009	0.080139
