19

O	-2.811935	-0.615723	-0.206443
C	-1.552095	-0.201485	0.303038
C	-1.266771	1.280405	-0.04784
C	0.202887	1.639039	-0.053133
C	1.097208	0.703318	0.221538
C	2.521297	0.321409	-0.096804
O	2.090898	-1.066125	-0.21874
C	0.813842	-0.758309	0.414001
C	-0.487614	-1.160365	-0.259401
H	-3.489153	-0.045053	0.171377
H	-1.542818	-0.305	1.40154
H	-1.669523	1.462774	-1.05432
H	-1.837888	1.934205	0.627034
H	0.484746	2.634758	-0.386229
H	2.951428	0.711291	-1.026159
H	3.248549	0.442932	0.718554
H	0.833879	-1.101815	1.459922
H	-0.783957	-2.193085	-0.05566
H	-0.399497	-1.030296	-1.342999
