19

O	2.571152	0.33076	0.100547
C	1.70424	-0.50988	-0.642447
C	0.521526	-0.990027	0.205401
C	-0.847748	-1.301224	-0.416789
C	-1.643234	-0.0272	-0.676619
C	-0.939695	1.320789	-0.707087
O	-0.158784	1.370081	0.499718
C	-0.210139	0.069458	1.096418
C	-1.562224	-0.57003	0.715868
H	2.041016	1.103586	0.334054
H	1.342783	-0.008853	-1.552675
H	2.306321	-1.363744	-0.972176
H	0.829829	-1.822721	0.847247
H	-1.137394	-2.230755	-0.893486
H	-2.564489	-0.144614	-1.235353
H	-0.288273	1.45866	-1.578568
H	-1.665351	2.143864	-0.690179
H	0.089148	0.159954	2.138731
H	-2.388893	-0.853421	1.351802
