19

O	-2.412139	1.114934	-0.686838
C	-2.634769	0.226954	0.091159
O	-1.862125	-0.83574	0.346941
C	-0.624607	-0.972186	-0.394121
C	0.580178	-0.69379	0.511168
C	0.79958	0.813414	0.83581
C	1.994451	1.273912	-0.043403
C	2.614496	-0.024013	-0.498386
C	1.865933	-1.080581	-0.189771
H	-3.534697	0.158887	0.72243
H	-0.614379	-2.008557	-0.743635
H	-0.64591	-0.299385	-1.253623
H	0.428614	-1.278647	1.427057
H	-0.097242	1.409498	0.656341
H	1.056329	0.921993	1.893148
H	1.671183	1.874503	-0.904236
H	2.698626	1.9018	0.514411
H	3.558628	-0.065173	-1.031148
H	2.101381	-2.110724	-0.436299
