19

C	0.041233	-1.571207	1.107203
C	0.226911	-0.501306	0.04653
O	1.336811	-0.869133	-0.864632
C	2.19995	0.150715	-0.275452
C	0.974001	0.76147	0.349868
C	0.205985	1.844787	0.395249
C	-1.247012	1.404088	0.239932
C	-1.088251	0.051287	-0.544485
O	-2.161973	-0.85491	-0.409362
H	-0.704551	-1.264452	1.845882
H	-0.313673	-2.493212	0.63876
H	0.985149	-1.775397	1.619334
H	2.930096	-0.297518	0.410897
H	2.726018	0.749814	-1.026191
H	0.523601	2.880857	0.389408
H	-1.763356	1.224976	1.192049
H	-1.842889	2.136768	-0.315565
H	-0.892965	0.287995	-1.600412
H	-2.923032	-0.496497	-0.875291
