19

C	3.985412	-0.20468	-0.693352
C	2.961383	0.043141	-0.117592
C	1.736111	0.3658	0.601913
O	0.646774	-0.333892	0.029948
C	-0.583151	-0.136503	0.716184
C	-1.29161	1.177856	0.322712
C	-2.188863	0.717666	-0.829487
O	-2.652172	-0.561058	-0.419758
C	-1.567462	-1.222612	0.217538
H	4.887904	-0.429406	-1.20599
H	1.847164	0.094054	1.665852
H	1.572273	1.455323	0.572831
H	-0.407936	-0.202215	1.798923
H	-1.905197	1.537614	1.154627
H	-0.587728	1.965998	0.045572
H	-3.061313	1.352759	-1.001294
H	-1.611586	0.649173	-1.765336
H	-1.975545	-1.833824	1.027599
H	-1.025773	-1.873891	-0.481797
