19

C	-2.759236	0.405363	0.776022
C	-1.843012	-0.376902	-0.139995
O	-1.80891	-1.584741	-0.166035
C	-0.906222	0.461114	-1.019162
C	0.423917	0.668657	-0.280144
O	0.707812	1.744129	0.203248
C	1.312001	-0.519839	-0.187276
C	2.810258	-0.275205	-0.350111
C	2.264548	-0.593607	0.996693
H	-3.504025	0.944354	0.178445
H	-3.265498	-0.267029	1.469256
H	-2.187303	1.163239	1.323015
H	-0.729857	-0.093646	-1.944353
H	-1.328087	1.445047	-1.230308
H	0.905871	-1.448656	-0.567707
H	3.373625	-1.030538	-0.885492
H	3.099866	0.751256	-0.543799
H	2.442456	-1.576081	1.417816
H	2.188206	0.219462	1.70926
