19

C	-2.690165	-0.249604	-0.623059
C	-1.438309	-0.123974	0.254848
C	-0.583198	-1.406122	0.189969
C	0.85767	-1.211781	0.704871
C	1.559598	-0.195379	-0.175625
O	2.593229	-0.402186	-0.768936
C	0.826586	1.108279	-0.320888
O	0.245207	1.616321	0.890296
C	-0.643753	1.128198	-0.105844
H	-3.268239	-1.137606	-0.350151
H	-3.343681	0.621999	-0.51536
H	-2.421511	-0.340745	-1.68167
H	-1.758116	0.023527	1.295338
H	-1.076544	-2.203718	0.755317
H	-0.537424	-1.750309	-0.852005
H	0.839817	-0.840411	1.735854
H	1.424879	-2.144388	0.675648
H	1.304075	1.84544	-0.963264
H	-1.201326	1.915428	-0.616217
