19

O	-2.883822	0.197418	-0.533156
C	-1.753972	0.109399	-0.130905
C	-0.719115	1.242666	-0.113113
C	0.466827	0.736207	0.729185
C	1.867213	1.019351	0.146767
C	2.21176	-0.286463	-0.622598
O	1.053687	-1.113082	-0.570979
C	0.359462	-0.809033	0.632799
C	-1.11245	-1.151312	0.463238
H	-0.423676	1.424201	-1.153515
H	-1.171921	2.167774	0.25172
H	0.375777	1.081756	1.762289
H	1.864735	1.895544	-0.506498
H	2.59725	1.207065	0.9383
H	2.452143	-0.123165	-1.676628
H	3.066354	-0.797806	-0.155164
H	0.829316	-1.31751	1.488063
H	-1.277815	-2.020727	-0.176887
H	-1.589431	-1.356707	1.429162
