19

C	2.538895	-0.920595	-0.598602
C	1.052296	-0.651775	-0.52116
C	0.353028	-0.664721	0.830183
C	-1.117925	-1.021949	0.849254
C	-1.787003	-0.03149	-0.120904
O	-2.895019	-0.142382	-0.574412
C	-0.814113	1.121437	-0.415149
C	0.544782	0.638498	0.058465
O	1.503504	1.585948	0.414886
H	3.064658	-0.459656	0.240296
H	2.740501	-1.996889	-0.586149
H	2.964573	-0.508522	-1.519383
H	0.479825	-1.05426	-1.356747
H	0.96884	-0.863294	1.700604
H	-1.351627	-2.048549	0.548308
H	-1.560924	-0.872839	1.84291
H	-0.862335	1.408486	-1.469513
H	-1.134869	1.995023	0.170562
H	1.203715	2.035538	1.212794
