19

C	2.316355	0.02401	0.700947
O	1.617578	-0.515264	-0.411451
C	0.23656	-0.423751	-0.381172
C	-0.486866	-1.64345	-0.854487
C	-0.630815	-1.20733	0.603851
C	-1.809213	-0.335758	0.856493
C	-1.765764	0.791485	0.136521
C	-0.470946	0.931802	-0.632603
O	0.275606	2.072982	-0.215772
H	1.857972	-0.287509	1.649927
H	3.332372	-0.376755	0.653851
H	2.357153	1.116467	0.659892
H	-1.353726	-1.544939	-1.500196
H	0.150588	-2.499481	-1.04937
H	-0.219485	-1.843279	1.379079
H	-2.626793	-0.629979	1.505825
H	-2.527793	1.561498	0.107615
H	-0.628063	1.080479	-1.70669
H	0.176436	2.139701	0.740542
