19

O	-3.030317	0.149828	-0.20255
C	-2.076209	-0.381788	0.300652
C	-0.70392	-0.439166	-0.357884
O	0.102049	-1.289542	0.43371
C	1.406874	-1.432102	-0.11385
C	2.222086	-0.141135	0.01839
C	1.391634	1.095642	-0.32605
C	0.444428	1.656675	0.70863
C	-0.105941	0.952126	-0.50337
H	-2.117768	-0.870449	1.2991
H	-0.83823	-0.874724	-1.364211
H	1.879003	-2.256569	0.427106
H	1.324866	-1.724509	-1.173269
H	2.611669	-0.056461	1.039128
H	3.091436	-0.20729	-0.644631
H	1.88018	1.821161	-0.968168
H	0.397636	1.135817	1.659801
H	0.319501	2.731424	0.774581
H	-0.595864	1.557797	-1.257827
