19

O	-2.485996	-0.284243	0.22235
C	-1.453779	-1.179165	-0.163417
C	-0.078333	-0.570835	-0.008276
C	0.448731	0.035046	1.339848
C	1.465645	0.741774	0.383623
C	2.168524	-0.469378	-0.223313
C	1.165903	-1.320355	-0.478667
C	0.272289	0.849943	-0.645873
O	-0.66835	1.888943	-0.490698
H	-2.349001	0.526542	-0.283509
H	-1.557408	-2.063321	0.476992
H	-1.587271	-1.518672	-1.204793
H	-0.268835	0.702552	1.829732
H	0.858687	-0.664253	2.071884
H	2.055062	1.609742	0.678587
H	3.224548	-0.559415	-0.434689
H	1.183412	-2.290479	-0.95623
H	0.543702	0.841854	-1.703784
H	-0.802015	2.055666	0.449052
