19

C	-1.283425	-1.823763	-0.395515
C	-1.001908	-0.392833	0.033606
C	-1.957533	0.148888	1.07942
C	-0.467626	0.480523	-1.045943
O	-0.326519	1.836702	-0.670437
C	0.64434	1.484046	0.359116
C	0.493136	-0.006013	0.074625
C	1.635968	-0.921226	0.038944
O	2.755499	-0.596395	0.371286
H	-2.323614	-1.910488	-0.726122
H	-0.64581	-2.14554	-1.224457
H	-1.135964	-2.5256	0.432003
H	-1.806059	-0.34421	2.045271
H	-1.842772	1.225696	1.211741
H	-2.991239	-0.036296	0.767497
H	-0.484936	0.243872	-2.105584
H	1.63867	1.85079	0.092596
H	0.357018	1.854226	1.347935
H	1.425151	-1.952644	-0.313188
