19

O	-2.000714	-1.305357	-0.116306
C	-0.628018	-1.066671	-0.032757
C	-0.0631	0.099333	-0.771156
C	-1.014769	1.31223	-0.759904
C	-1.015885	1.28774	0.800147
C	-0.066631	0.071822	0.77899
C	1.386592	-0.011504	1.180282
O	2.08188	-0.441401	-0.003004
C	1.390867	0.034271	-1.17113
H	-2.285618	-1.68952	0.719637
H	0.000733	-1.957385	-0.049342
H	-0.544006	2.208803	-1.169313
H	-1.976001	1.156367	-1.252818
H	-0.545232	2.169878	1.240098
H	-1.981418	1.126058	1.28578
H	1.740422	0.976099	1.518594
H	1.629394	-0.746757	1.955112
H	1.743209	1.035842	-1.465763
H	1.634848	-0.66864	-1.974336
