19

C	2.750705	-0.762272	-0.14511
C	1.490477	0.052719	0.064062
O	1.56544	1.260594	0.204876
C	0.208589	-0.752756	0.09275
C	-1.057305	-0.399471	0.958674
C	-1.816503	-1.41601	0.055974
C	-0.98019	-0.55027	-0.928716
C	-1.497514	0.680709	-0.092567
O	-0.969154	1.949459	-0.165022
H	3.616198	-0.103458	-0.216822
H	2.885876	-1.461586	0.688343
H	2.663143	-1.370127	-1.05287
H	0.490183	-1.807649	0.175498
H	-1.084074	-0.332774	2.04735
H	-1.521166	-2.462262	0.150672
H	-2.901701	-1.306594	0.002996
H	-0.911772	-0.657447	-2.012341
H	-2.5842	0.795168	-0.153694
H	-0.012334	1.910412	0.021633
