19

C	-2.805462	0.032954	-0.3481
C	-1.301264	0.131564	-0.568903
C	-0.414911	-1.051639	-0.059288
C	-0.438124	-0.377991	1.341172
C	-0.477506	0.949652	0.496793
C	0.902377	0.856145	-0.112635
O	1.812479	1.643453	-0.14565
C	0.957504	-0.620503	-0.596989
O	2.039817	-1.308896	-0.009022
H	-3.28849	0.990805	-0.567002
H	-3.237055	-0.716567	-1.020126
H	-3.072152	-0.24711	0.67412
H	-1.11647	0.427436	-1.609154
H	-0.702657	-2.091855	-0.209618
H	-1.361405	-0.541354	1.894962
H	0.423312	-0.545416	1.989965
H	-0.794132	1.909399	0.901055
H	0.999936	-0.675305	-1.696322
H	2.795056	-0.707587	-0.032801
