19

C	-2.455518	0.000423	0.278832
C	-1.194009	-0.038142	-0.575243
O	-0.562056	1.255892	-0.552962
C	0.719522	1.291751	0.011781
C	1.741897	0.222764	-0.328981
C	1.100177	-1.003571	-0.958413
C	-0.18902	-1.104028	-0.117115
O	0.222125	-0.784139	1.219154
C	1.12045	0.291579	1.059453
H	-3.082788	0.844248	-0.019722
H	-3.033271	-0.921957	0.152185
H	-2.194866	0.10784	1.334297
H	-1.466224	-0.240065	-1.622006
H	1.055527	2.318247	0.10893
H	2.776489	0.473945	-0.52933
H	0.878618	-0.885823	-2.023034
H	1.731467	-1.887358	-0.825647
H	-0.648084	-2.094545	-0.101058
H	1.641594	0.546793	1.973963
