19

O	3.147206	-1.3e-05	-0.269916
C	1.900802	-7e-06	0.366281
C	0.772627	0.773175	-0.25232
C	0.772621	-0.773173	-0.252337
C	-0.444991	-0.791773	0.670068
C	-1.773435	-1.134311	-0.014446
O	-2.129876	7e-06	-0.791104
C	-1.77343	1.134314	-0.014432
C	-0.44499	0.791761	0.670081
H	3.007687	0.000152	-1.222968
H	2.051362	-1.9e-05	1.444213
H	0.952758	1.463522	-1.070501
H	0.952755	-1.4635	-1.070533
H	-0.321616	-1.314332	1.623435
H	-1.715127	-1.995285	-0.686869
H	-2.542475	-1.340939	0.748695
H	-1.715118	1.995296	-0.686845
H	-2.542471	1.340936	0.748709
H	-0.321616	1.314305	1.623457
