19

O	3.056989	-0.340086	0.103184
C	1.775965	-0.041609	-0.35978
C	0.647181	-0.789742	0.279453
C	-0.551692	-1.225899	-0.561621
C	-1.770549	-0.296852	-0.41399
O	-2.506405	-0.563164	0.786828
C	-1.384026	1.165771	-0.474877
C	-0.217788	1.610661	0.001063
C	0.812372	0.699624	0.5525
H	3.591944	0.458565	0.04167
H	1.694069	0.156277	-1.430124
H	0.95175	-1.450337	1.083905
H	-0.272904	-1.258131	-1.621766
H	-0.864256	-2.236619	-0.284277
H	-2.477872	-0.527067	-1.217635
H	-2.013632	-0.162655	1.511129
H	-2.127381	1.862471	-0.851186
H	0.003127	2.676315	-0.000776
H	1.241704	0.97546	1.512478
