19

O	-3.202803	-0.369749	-0.113827
C	-1.915279	-0.131053	0.388465
C	-0.71551	-0.992691	-0.109577
C	0.115863	0.293198	-0.097602
C	-1.148345	1.158393	-0.038154
C	1.412749	0.673443	-0.764927
C	2.398276	-0.484552	-0.633707
O	2.177691	-0.568737	0.802236
C	1.315609	0.569911	0.745837
H	-3.155405	-0.356971	-1.075795
H	-2.008986	-0.185028	1.476197
H	-0.376277	-1.816932	0.520873
H	-0.893414	-1.367333	-1.125556
H	-1.165029	2.013729	0.642998
H	-1.467577	1.495825	-1.032182
H	1.518353	1.533616	-1.413448
H	2.154881	-1.421941	-1.147971
H	3.436863	-0.20504	-0.842365
H	1.377314	1.298077	1.547973
