19

O	3.460028	-0.397023	-0.270265
C	2.540729	0.073215	0.347516
C	1.284016	0.650161	-0.258804
C	0.016527	0.018961	0.325321
C	-0.363962	-1.393244	-0.149999
C	-1.877161	-1.490938	0.145228
C	-2.417704	-0.092231	-0.195575
C	-1.243173	0.858887	0.045444
O	-1.276577	2.06165	0.010695
H	2.561023	0.112335	1.463974
H	1.252752	1.724791	-0.027558
H	1.326724	0.535967	-1.345973
H	0.103338	0.006678	1.425213
H	-0.184806	-1.476755	-1.229353
H	0.214998	-2.182635	0.335586
H	-2.364821	-2.287942	-0.420301
H	-2.033649	-1.705153	1.208714
H	-2.680377	-0.013968	-1.258786
H	-3.298423	0.220794	0.370261
