19

C	-3.320125	-0.719012	0.47957
C	-2.164144	-0.020693	-0.239238
C	-0.921359	0.141123	0.661398
C	0.17977	0.892525	-0.063406
O	0.192016	2.092551	-0.178347
C	1.311336	0.041765	-0.710152
O	0.782802	-1.115952	-1.35061
C	2.299372	-0.288113	0.310176
C	3.064041	-0.601017	1.184243
H	-3.634549	-0.156991	1.365751
H	-4.188517	-0.817799	-0.179063
H	-3.035585	-1.724768	0.808215
H	-1.880037	-0.584543	-1.133791
H	-2.477318	0.973832	-0.576081
H	-1.185653	0.723823	1.55003
H	-0.565766	-0.842118	0.987127
H	1.761556	0.674534	-1.482854
H	0.953246	-1.876527	-0.78617
H	3.760732	-0.861708	1.942942
