19

C	-2.607031	-0.884835	0.005127
O	-1.727526	0.089176	-0.518696
C	-0.404516	0.145654	0.011055
C	-0.336974	0.177299	1.534985
C	0.432061	-1.024014	-0.602229
C	1.834312	-1.035566	-0.214764
C	2.992602	-1.037359	0.104855
C	0.123199	1.458734	-0.583933
O	0.888526	2.204158	-0.036917
H	-2.823008	-0.7226	1.06859
H	-3.537883	-0.788492	-0.558644
H	-2.231909	-1.90976	-0.122682
H	-1.031934	0.924574	1.927663
H	-0.576546	-0.795912	1.971703
H	0.672531	0.456132	1.83987
H	-0.037818	-1.968463	-0.302834
H	0.339826	-0.965977	-1.693823
H	4.016634	-1.03314	0.38574
H	-0.2798	1.65749	-1.601246
