19

C	0.047612	2.04239	-0.24633
C	0.101333	0.548498	0.078994
C	-0.988684	0.122602	1.128393
C	-1.803724	-0.445816	-0.040958
O	-2.949518	-0.761306	-0.176898
C	-0.60853	-0.3424	-0.99526
C	1.508316	0.139936	0.449047
C	2.471677	-0.39973	-0.517122
O	1.816208	-1.254669	0.426819
H	0.39704	2.644145	0.600121
H	0.674705	2.280753	-1.1119
H	-0.975865	2.356787	-0.475795
H	-0.643634	-0.677698	1.792043
H	-1.462439	0.90561	1.725974
H	-0.119805	-1.31775	-1.094214
H	-0.794072	0.081522	-1.985115
H	1.911619	0.662371	1.319824
H	2.17149	-0.539202	-1.554632
H	3.539447	-0.261613	-0.35625
