19

O	-2.35535	-0.495922	-0.221226
C	-1.339408	0.329128	0.300065
C	-0.608793	1.236419	-0.726767
C	0.788528	1.404216	-0.136406
C	1.75563	0.235468	-0.187547
C	1.287086	-1.076938	-0.788829
O	0.212234	-1.543395	0.023534
C	-0.211308	-0.518082	0.921405
C	0.947961	0.473673	1.055418
H	-3.066254	0.068678	-0.539035
H	-1.728604	0.973127	1.107559
H	-0.604268	0.74884	-1.70818
H	-1.108738	2.202174	-0.845945
H	1.229731	2.394225	-0.110318
H	2.815483	0.462026	-0.206339
H	0.950807	-0.969892	-1.830681
H	2.090174	-1.8246	-0.772164
H	-0.520453	-1.000256	1.851702
H	1.368877	0.756919	2.010902
