19

O	2.607398	-0.478543	-0.500172
C	1.498693	-0.005974	0.235581
C	1.260185	1.489285	-0.029693
C	-0.279275	1.703348	0.073416
C	-0.867267	0.311172	0.447263
C	-2.224814	0.057391	-0.003995
C	-3.332912	-0.191625	-0.401496
C	0.173997	-0.66287	-0.148511
O	0.12929	-1.980658	0.352463
H	2.655914	-1.429731	-0.351516
H	1.646777	-0.186147	1.313533
H	1.818133	2.117376	0.66785
H	1.624746	1.719494	-1.034536
H	-0.555761	2.457137	0.813454
H	-0.692226	2.030437	-0.883862
H	-0.82806	0.182609	1.537336
H	-4.318338	-0.391584	-0.742871
H	0.086573	-0.652456	-1.246661
H	-0.702913	-2.377882	0.073556
