19

C	1.382636	1.860623	-0.571706
C	0.33821	1.122358	0.256435
O	1.008572	0.340776	1.249585
C	0.536446	-0.995149	1.22912
C	0.090567	-1.256238	-0.20414
O	1.245422	-1.538951	-0.976239
C	-0.530258	0.122045	-0.580465
C	-1.947287	0.187604	-0.254034
C	-3.114318	0.224639	0.033749
H	2.025791	2.453447	0.084385
H	2.004887	1.142391	-1.112293
H	0.904438	2.536331	-1.288681
H	-0.321916	1.840981	0.75801
H	1.351917	-1.65823	1.529127
H	-0.313489	-1.132109	1.914979
H	-0.647372	-2.064434	-0.27154
H	0.968135	-1.701188	-1.883523
H	-0.39415	0.305193	-1.651827
H	-4.14617	0.267726	0.28084
