19

C	2.003111	-1.620353	0.081986
C	0.812401	-0.698797	0.347864
C	-0.484876	-1.165976	-0.340474
C	-1.697467	-0.29833	-0.01471
O	-2.82666	-0.721279	-0.068955
C	-1.380233	1.138934	0.387625
C	-0.088433	1.657911	-0.257836
C	1.122244	0.758036	-0.014965
O	2.251195	1.17672	-0.111291
H	2.200278	-1.699255	-0.992234
H	2.904681	-1.225972	0.553906
H	1.809117	-2.625336	0.467576
H	0.621272	-0.682493	1.433843
H	-0.350554	-1.140885	-1.432265
H	-0.725451	-2.202165	-0.087851
H	-2.243285	1.765912	0.151671
H	-1.278661	1.148786	1.482386
H	-0.217272	1.721432	-1.347702
H	0.163117	2.667898	0.075706
