19

O	-2.652453	-0.233889	-0.221128
C	-1.269435	-0.023897	-0.484265
C	-0.72728	1.304435	0.103247
C	0.652748	0.965745	0.697177
O	1.660064	0.964927	-0.319442
C	1.704536	-0.319608	-0.937821
C	0.989416	-1.280307	0.000654
C	-0.494919	-1.108235	0.259357
C	0.521478	-0.485556	1.186996
H	-3.147761	0.439124	-0.698256
H	-1.090113	-0.079135	-1.569183
H	-0.667668	2.124627	-0.617762
H	-1.407939	1.593245	0.912726
H	0.970021	1.67583	1.463882
H	1.241582	-0.279631	-1.935748
H	2.754953	-0.603949	-1.07011
H	1.402709	-2.274314	0.127152
H	-1.059747	-1.989025	0.54179
H	0.683814	-0.770537	2.217992
