19

C	2.089326	-0.489798	0.172318
C	1.15261	0.429742	-0.616598
C	0.465504	1.721498	-0.251291
O	-0.963652	1.490372	-0.210212
C	-1.370329	0.25276	0.394758
C	-1.408148	-0.943996	-0.614618
O	-0.152071	-1.658352	-0.462464
C	0.625617	-0.710507	0.224603
C	-0.278836	-0.240489	1.350011
H	2.703865	-1.139384	-0.440719
H	2.571691	-0.147739	1.083414
H	1.14957	0.203017	-1.678667
H	0.817579	2.125306	0.707474
H	0.599789	2.50256	-1.003425
H	-2.352248	0.442833	0.833611
H	-2.22147	-1.642246	-0.394815
H	-1.512926	-0.5679	-1.638177
H	-0.604604	-1.087305	1.959814
H	0.120079	0.539441	1.997804
