19

C	-1.581709	1.942926	-0.235692
C	-1.045698	0.569435	-0.000433
C	-1.492938	-0.606653	0.796985
O	-1.429531	-1.549931	-0.274685
C	-0.534439	-0.610097	-0.92925
C	0.765714	-0.688598	-0.077801
C	1.90596	0.182533	-0.582807
O	2.906264	0.406972	0.401701
C	-0.0771	-0.039135	1.019221
H	-2.462757	1.922772	-0.887064
H	-1.878733	2.403222	0.712906
H	-0.835246	2.598779	-0.697722
H	-2.24475	-0.729958	1.565918
H	-0.542676	-0.681265	-2.01628
H	1.114136	-1.715098	0.102042
H	2.338975	-0.262663	-1.493597
H	1.533	1.177034	-0.851635
H	3.272124	-0.449425	0.646021
H	0.253326	0.377818	1.961948
