19

C	1.185306	1.699035	0.098916
C	0.947072	0.194383	-0.035263
C	2.257251	-0.531886	-0.327155
O	0.387188	-0.314794	1.230002
C	-0.916589	-0.776991	0.860039
C	-0.659905	-1.566198	-0.454559
C	-0.228356	-0.154885	-0.987982
C	-1.406177	0.330668	-0.104711
O	-2.333035	1.072999	-0.214156
H	0.265258	2.226976	0.361907
H	1.924777	1.891651	0.881609
H	1.564165	2.11661	-0.839814
H	2.11391	-1.603372	-0.480069
H	2.735665	-0.115978	-1.219736
H	2.940178	-0.403002	0.518255
H	-1.459638	-1.154379	1.722614
H	0.10706	-2.338189	-0.396146
H	-1.567721	-1.943804	-0.929121
H	-0.128492	0.093099	-2.041973
