19

O	-2.359451	-1.101681	-0.175596
C	-1.343263	-0.803186	0.770702
C	-0.073091	-0.309752	0.111657
C	0.91112	-1.308097	-0.506531
C	2.26282	-0.656347	-0.300281
C	2.178442	0.480207	0.398088
C	0.765305	0.82852	0.709944
C	-0.110515	1.053144	-0.514764
O	-1.337775	1.717881	-0.385854
H	-2.588346	-0.260475	-0.587905
H	-1.694053	-0.067026	1.506073
H	-1.143261	-1.737119	1.307472
H	0.855336	-2.283561	-0.002224
H	0.695609	-1.500269	-1.564695
H	3.180516	-1.086312	-0.685505
H	3.015685	1.109203	0.678681
H	0.482414	1.315897	1.637561
H	0.402061	1.207668	-1.465174
H	-1.173061	2.665465	-0.345574
