19

O	-2.644016	0.723214	-0.663615
C	-1.887673	-0.429803	-0.433458
C	-1.663131	-0.902512	0.97796
C	-0.533349	-0.240722	0.202305
C	0.705323	-1.012677	-0.266223
C	1.808177	0.065434	-0.477914
O	3.061694	-0.274086	0.108668
C	1.235901	1.28447	0.199373
C	-0.039082	1.118017	0.547109
H	-3.565914	0.514246	-0.479267
H	-1.959894	-1.189243	-1.21405
H	-2.123385	-0.321514	1.771107
H	-1.598332	-1.969416	1.168623
H	1.056549	-1.683964	0.524654
H	0.517089	-1.613347	-1.161401
H	1.956328	0.269342	-1.551575
H	3.474593	-0.943662	-0.445534
H	1.822697	2.185176	0.333065
H	-0.67815	1.86612	0.999045
