19

O	-3.378622	-0.733807	-0.282455
C	-2.339832	-0.214969	-0.030589
C	-1.770275	1.200565	0.072432
C	-0.463451	0.473893	0.440898
C	0.716508	0.582123	-0.506266
C	1.804918	-0.424696	-0.200816
C	3.225947	-0.165597	-0.626816
C	2.858365	-0.118103	0.836474
O	-1.156949	-0.824009	0.301725
H	-1.761217	1.7496	-0.871411
H	-2.228488	1.813552	0.84997
H	-0.15267	0.59396	1.482295
H	0.355628	0.454253	-1.535447
H	1.118684	1.601634	-0.434578
H	1.469215	-1.456293	-0.248409
H	3.817162	-1.001434	-0.983507
H	3.44296	0.774306	-1.124301
H	3.198091	-0.920849	1.481059
H	2.832125	0.854503	1.318268
