19

C	1.861625	-0.936483	-0.439231
O	2.248619	0.382676	-0.003495
C	0.948135	0.614597	0.593368
C	0.11035	1.612945	-0.202143
C	-1.394239	1.338694	-0.030516
C	-1.742823	-0.075486	-0.47237
O	-1.910283	-1.054668	0.559048
C	-0.759703	-1.162104	-0.284655
C	0.557606	-0.875052	0.383978
H	1.715012	-0.984316	-1.527924
H	2.592221	-1.698397	-0.147546
H	1.046578	0.92706	1.639284
H	0.358484	2.637606	0.092371
H	0.37566	1.513434	-1.261193
H	-1.691715	1.458107	1.017438
H	-1.973176	2.063915	-0.610113
H	-2.464683	-0.17042	-1.283465
H	-0.781541	-2.018628	-0.961101
H	0.630768	-1.455103	1.307241
