19

C	0.37982	2.686576	-0.156348
O	0.918814	1.40088	0.097311
C	-0.016305	0.497526	0.564328
C	0.217121	-0.952975	0.258137
O	1.278136	-1.323385	-0.547532
C	2.515879	-1.355653	0.14812
C	-0.91482	-0.229808	-0.452208
C	-2.284005	-0.515987	-0.15647
C	-3.43298	-0.74939	0.114992
H	-0.045963	3.130401	0.755288
H	1.201784	3.313007	-0.508919
H	-0.404176	2.647899	-0.924698
H	-0.480183	0.750975	1.519086
H	-0.056962	-1.67132	1.032599
H	2.489779	-2.076065	0.979198
H	3.272077	-1.675696	-0.571999
H	2.777563	-0.365546	0.538497
H	-0.669722	0.003601	-1.484755
H	-4.448059	-0.958948	0.344154
