19

C	0.284801	-0.251564	1.697975
C	0.493916	-0.251807	0.169735
C	0.600078	-1.675594	-0.382537
C	1.784475	0.522555	-0.106
O	2.78337	0.03724	-0.572804
C	-0.66856	0.528225	-0.536828
O	-0.737481	1.888953	-0.114276
C	-1.960993	-0.139719	-0.373425
C	-3.03397	-0.652787	-0.195685
H	1.078862	-0.817588	2.193215
H	0.293603	0.764392	2.105403
H	-0.673709	-0.71626	1.948556
H	1.483015	-2.172158	0.025898
H	-0.28727	-2.258801	-0.12527
H	0.70786	-1.670271	-1.471519
H	1.742641	1.594172	0.178234
H	-0.431411	0.572645	-1.607551
H	-1.294783	1.926358	0.669926
H	-3.9844	-1.10788	-0.059664
