19

C	2.526685	-1.374123	0.141132
C	1.998518	-0.007884	-0.240769
C	1.33225	0.851882	0.86326
C	0.085721	0.71308	0.001767
C	-0.964967	1.683961	-0.357633
C	-1.337464	0.423986	0.448845
C	-2.101503	-0.640132	-0.238191
O	-2.889925	-1.373509	0.308197
O	0.739638	-0.086461	-0.974862
H	3.454914	-1.275571	0.714673
H	1.7968	-1.919186	0.747324
H	2.73953	-1.964672	-0.755148
H	2.737749	0.540987	-0.836551
H	1.276996	0.373562	1.843471
H	1.717585	1.867255	0.971328
H	-1.017644	2.637286	0.156794
H	-1.284	1.700782	-1.395652
H	-1.563314	0.539587	1.504108
H	-1.891766	-0.724888	-1.327493
