19

C	2.201151	-0.728631	-0.384506
O	2.085517	0.126291	0.759248
C	0.941735	-0.047089	-0.092905
C	0.410183	1.183366	-0.809272
C	-0.736294	1.660148	0.113363
C	-1.340964	0.371283	0.701059
C	-2.151889	-0.512548	-0.268969
O	-1.056004	-1.442966	-0.419509
C	-0.250965	-0.727183	0.547299
H	2.839722	-0.353929	-1.183647
H	2.306697	-1.790997	-0.168337
H	1.189227	1.933397	-0.960693
H	0.021579	0.892389	-1.791622
H	-0.32339	2.268769	0.924887
H	-1.479	2.271247	-0.408595
H	-1.78563	0.511234	1.686193
H	-3.034594	-0.997202	0.166048
H	-2.435092	-0.049896	-1.223349
H	0.026632	-1.347682	1.4048
