19

C	-2.384304	-1.39875	-0.027151
C	-1.083579	-0.666541	-0.095889
C	0.143721	-1.126862	0.165036
C	1.183268	-0.079449	-0.001628
C	2.442106	-0.046973	0.762034
O	2.433954	-0.448182	-0.607812
C	0.455801	1.152531	-0.542195
C	-1.05316	0.819046	-0.42507
O	-1.743976	1.585664	0.563882
H	-2.858943	-1.440871	-1.015928
H	-2.261521	-2.421974	0.336598
H	-3.083773	-0.870307	0.630151
H	0.394777	-2.140068	0.460093
H	2.916758	0.912666	0.968298
H	2.66618	-0.834977	1.481551
H	0.688013	2.074007	-0.002469
H	0.748308	1.297123	-1.586188
H	-1.593477	1.043588	-1.351098
H	-1.359266	1.362943	1.41961
