19

C	0.492258	2.358665	-0.625503
C	0.285502	1.054089	0.122956
C	1.345478	-0.076889	0.007578
O	2.417672	-0.144518	0.907232
C	0.208642	-1.11487	0.051936
O	0.386912	-2.23436	-0.767106
C	-0.772789	0.024954	-0.401702
C	-2.114976	0.047324	0.131833
C	-3.22011	0.049671	0.608658
H	-0.383148	3.010888	-0.54014
H	1.356572	2.900519	-0.226905
H	0.673752	2.176288	-1.690397
H	0.084924	1.248121	1.183795
H	1.787847	-0.082234	-0.994568
H	2.059555	-0.160055	1.801146
H	-0.014872	-1.391839	1.093712
H	-0.359626	-2.829662	-0.643007
H	-0.786167	0.041551	-1.497516
H	-4.199532	0.059779	1.01833
