19

C	1.959357	1.228837	-0.23368
C	1.014582	0.114814	0.134419
C	1.427255	-1.335954	0.168721
C	0.413659	-0.87879	-0.850614
C	-1.053643	-0.909923	-0.41994
C	-1.662761	0.463489	-0.791589
O	-1.041596	1.333	0.174996
C	-0.232034	0.452955	0.964422
O	-0.968702	-0.75208	1.007621
H	1.404574	2.091329	-0.615487
H	2.542559	1.560341	0.63382
H	2.668864	0.908577	-1.00277
H	2.41904	-1.552458	-0.214658
H	1.103897	-1.969004	0.986755
H	0.655745	-0.852692	-1.906689
H	-1.647888	-1.7888	-0.667833
H	-1.411597	0.781812	-1.808957
H	-2.749856	0.486956	-0.657178
H	-0.10145	0.874005	1.961624
