19

O	-1.547704	-1.313218	1.07247
C	-1.265535	-1.00076	-0.290545
C	-1.927115	0.323309	-0.702775
C	-1.353584	1.50137	0.100762
C	0.137538	1.421294	0.247963
C	0.861544	0.32826	-0.045082
C	0.244246	-0.951503	-0.55935
C	2.322807	0.375769	0.146935
O	3.072586	-0.548843	-0.071374
H	-0.951807	-0.797281	1.625861
H	-1.707651	-1.821742	-0.863984
H	-1.752543	0.486418	-1.773338
H	-3.008455	0.256595	-0.553733
H	-1.629237	2.458274	-0.358528
H	-1.803637	1.528135	1.104494
H	0.651327	2.302005	0.632209
H	0.440892	-1.045384	-1.635154
H	0.736637	-1.810508	-0.092782
H	2.706015	1.353543	0.518746
