19

C	-3.246891	0.311215	-0.225484
O	-1.99389	-0.167185	-0.733162
C	-1.024719	-0.32703	0.187896
O	-1.168454	-0.08599	1.360323
C	0.240382	-0.880547	-0.438471
C	1.513297	-0.379421	0.276067
C	2.750903	-1.190847	-0.15121
C	1.712398	1.049539	0.03553
C	1.883145	2.217728	-0.190854
H	-3.120618	1.287184	0.249309
H	-3.906846	0.387919	-1.089535
H	-3.657001	-0.385934	0.50964
H	0.188626	-1.973353	-0.349305
H	0.262011	-0.643996	-1.504565
H	1.348412	-0.521622	1.350845
H	3.643395	-0.834398	0.368763
H	2.611976	-2.250499	0.085539
H	2.927165	-1.097325	-1.22715
H	2.030539	3.2536	-0.371676
