19

C	-1.901451	1.669413	-0.273584
C	-0.840855	0.853191	0.473357
C	-1.266847	-0.601428	0.695144
O	-1.586797	-1.300272	-0.512867
C	-0.302855	-1.533535	0.090223
C	0.80218	-0.746466	-0.541799
C	1.641046	0.090085	0.399729
O	2.902232	0.512975	-0.025192
C	0.477094	0.723151	-0.301062
H	-1.551135	2.690021	-0.456044
H	-2.130201	1.201822	-1.234906
H	-2.829938	1.731239	0.303573
H	-0.661281	1.313999	1.454404
H	-1.877989	-0.86607	1.555475
H	-0.145644	-2.54372	0.46205
H	1.250408	-1.075599	-1.473083
H	1.551903	-0.098061	1.471958
H	3.503747	-0.237024	0.032551
H	0.716778	1.455302	-1.063558
