19

O	1.743624	1.343567	-0.042019
C	0.529257	0.649249	-0.067894
C	-0.741653	1.475611	-0.315955
C	-1.867902	0.568364	0.251309
C	-1.136032	-0.766593	0.42762
O	-0.694765	-1.163732	-0.903061
C	0.653743	-0.679606	-0.885727
C	1.243052	-1.347193	0.377199
C	0.225156	-0.40951	1.068739
H	1.68518	2.029852	0.631694
H	-0.676905	2.435201	0.209707
H	-0.874485	1.697066	-1.378408
H	-2.240488	0.936906	1.214126
H	-2.719473	0.465834	-0.424915
H	-1.714993	-1.573172	0.881922
H	1.095157	-0.729365	-1.880334
H	1.112841	-2.427482	0.466633
H	2.271129	-1.04491	0.575765
H	0.237446	-0.170541	2.132705
