19

O	3.443423	0.388241	-0.232237
C	2.321173	-0.101473	0.440142
C	1.680937	-1.391706	-0.007436
C	1.027152	-0.055832	-0.315597
C	-0.241157	0.357364	0.355532
C	-0.949465	1.614343	-0.019031
C	-1.55731	0.275621	-0.422322
C	-2.757195	-0.197429	0.296238
O	-3.63363	-0.875638	-0.179783
H	4.2013	-0.147917	0.02465
H	2.282666	0.131738	1.505228
H	2.146628	-1.915382	-0.834868
H	1.224813	-2.030568	0.742034
H	1.131238	0.278229	-1.34424
H	-0.31459	0.066979	1.401637
H	-1.453345	2.178874	0.758934
H	-0.542838	2.218769	-0.822058
H	-1.502657	-0.014981	-1.465713
H	-2.796379	0.128108	1.365401
