19

C	2.418112	0.19161	0.489108
C	1.639832	-0.376851	-0.669706
O	0.633035	-1.319963	-0.411977
C	-0.289018	-0.769531	0.537233
C	-1.746554	-0.983965	0.078413
O	-2.334078	0.306466	-0.050899
C	-1.291839	1.218412	-0.354419
C	-0.099888	0.772556	0.512684
C	1.262278	0.969344	-0.119748
H	2.294741	-0.251349	1.471941
H	3.419297	0.555168	0.283696
H	2.108171	-0.533977	-1.63397
H	-0.095889	-1.206965	1.522291
H	-1.730023	-1.51804	-0.882375
H	-2.350839	-1.551311	0.791544
H	-1.021569	1.17311	-1.422845
H	-1.652576	2.225386	-0.129662
H	-0.184981	1.196739	1.517035
H	1.464475	1.889771	-0.656036
