19

C	3.487208	-0.974417	-0.062879
O	2.113662	-0.787341	-0.320682
C	1.542326	0.32965	0.353913
C	1.872652	1.65998	-0.34393
C	0.095975	0.122785	0.4242
C	-1.100049	-0.008352	0.475176
C	-2.523837	-0.178509	0.567533
C	-3.302537	-0.793206	-0.526467
O	-3.349331	0.609836	-0.308255
H	3.688759	-1.070779	1.015736
H	3.777804	-1.9036	-0.558692
H	4.111241	-0.160042	-0.45877
H	1.936094	0.363873	1.384636
H	1.402824	2.492327	0.186727
H	2.952573	1.830064	-0.360983
H	1.499325	1.642268	-1.370587
H	-2.921698	-0.266218	1.578013
H	-2.780291	-1.113234	-1.425859
H	-4.211701	-1.342213	-0.284004
