19

C	-1.939737	-1.211526	-0.421453
C	-0.76271	-0.335199	-0.083343
C	-0.766709	1.038644	0.653969
C	-0.108554	1.713646	-0.563732
C	0.143978	0.301877	-1.184191
O	1.463868	-0.198146	-1.041927
C	1.600913	-0.917999	0.184854
C	0.304858	-0.72964	0.958568
O	0.215763	0.564714	1.604179
H	-2.633513	-0.703569	-1.100117
H	-1.612646	-2.133607	-0.916604
H	-2.499228	-1.494011	0.476785
H	-1.624586	1.50341	1.145126
H	-0.833064	2.28538	-1.153039
H	0.773879	2.32539	-0.366575
H	-0.159398	0.18146	-2.227538
H	1.775218	-1.98273	-0.02934
H	2.458029	-0.529674	0.746885
H	0.086038	-1.543415	1.658365
