19

O	-2.650527	-0.433382	-0.451035
C	-1.609207	0.500997	-0.348954
C	-1.237024	0.919903	1.063795
C	-0.302664	0.099664	0.238514
C	0.356239	-1.271314	0.457373
C	1.042139	-1.093351	-0.932255
C	1.173555	0.283616	-0.198831
O	1.812784	1.433032	-0.615431
C	1.567654	-0.501456	1.07646
H	-2.427497	-1.049452	-1.156412
H	-1.62727	1.287131	-1.107434
H	-1.01025	1.966896	1.241914
H	-1.787724	0.427458	1.859163
H	-0.116863	-2.169756	0.843936
H	1.97047	-1.648257	-1.091291
H	0.391415	-1.125064	-1.811161
H	1.441298	1.700745	-1.463147
H	2.532392	-1.015014	1.049478
H	1.391816	-0.000243	2.030064
