19

O	-0.405394	-1.368483	0.625539
C	-0.33062	-0.365669	-0.049155
C	-1.511477	0.499368	-0.338362
C	-2.848673	-0.204145	-0.538289
C	-2.606927	0.562616	0.715003
C	0.988549	0.121192	-0.638604
C	1.712146	1.198361	0.220479
C	2.786696	0.103636	0.38801
O	2.07032	-0.79882	-0.48029
H	-1.327519	1.391654	-0.927522
H	-3.515059	0.2067	-1.287784
H	-2.81878	-1.285874	-0.476577
H	-3.105834	1.514812	0.853531
H	-2.416021	-0.006626	1.617568
H	0.834061	0.397245	-1.691576
H	2.029337	2.084228	-0.33042
H	1.193228	1.502243	1.130834
H	3.780792	0.345074	-0.005173
H	2.88821	-0.30317	1.400632
