19

C	2.812902	0.521807	-0.417154
C	1.381102	0.037438	-0.419331
C	0.807444	-0.699304	0.744079
C	-0.244268	-1.758507	0.476186
O	-1.048282	-1.408275	-0.63855
C	-1.814776	-0.239472	-0.41978
C	-1.02535	0.980315	0.068396
O	-1.572111	2.057839	0.159045
C	0.374658	0.743071	0.499549
H	3.13726	0.798737	0.591268
H	3.488139	-0.259867	-0.782135
H	2.936034	1.398657	-1.061071
H	0.992409	-0.258842	-1.388425
H	1.444315	-0.876261	1.606604
H	0.221073	-2.715811	0.220004
H	-0.870637	-1.914331	1.3709
H	-2.304691	0.006036	-1.365614
H	-2.608373	-0.418432	0.326399
H	0.777339	1.531519	1.126435
