19

C	2.1e-05	0.0	1.527857
C	0.0	-0.759602	0.226008
C	1.347521	-1.162317	-0.333268
O	2.173437	0.0	-0.211178
C	1.347521	1.162317	-0.333268
C	0.0	0.759602	0.226009
C	-1.347526	1.162341	-0.333212
O	-2.173436	0.0	-0.21126
C	-1.347526	-1.162341	-0.333213
H	-0.918217	-1e-06	2.105492
H	0.918251	-1e-06	2.105502
H	1.855809	-1.966017	0.208788
H	1.239543	-1.469165	-1.387173
H	1.855808	1.966018	0.208788
H	1.239541	1.469165	-1.387172
H	-1.855812	1.965959	0.208972
H	-1.239586	1.469348	-1.387073
H	-1.855812	-1.965959	0.208973
H	-1.239588	-1.469349	-1.387073
