19

C	-2.721818	-0.976412	0.29129
C	-1.506065	-0.121018	0.114672
C	-1.449564	1.109704	-0.412924
C	-0.056427	1.696446	-0.402071
C	0.80404	0.555522	0.122051
O	1.92229	0.918258	0.856258
C	0.845284	-0.725673	-0.656913
O	2.032751	-1.439017	-0.437222
C	-0.142233	-0.588436	0.505562
H	-2.630771	-1.920272	-0.261285
H	-2.864627	-1.246128	1.345508
H	-3.625884	-0.465905	-0.051836
H	-2.303676	1.649017	-0.807653
H	0.273242	2.03716	-1.391346
H	0.022393	2.561921	0.269941
H	2.560306	0.199277	0.747704
H	0.451266	-0.778176	-1.672554
H	1.815994	-2.364228	-0.28371
H	0.022138	-1.207387	1.382954
