19

C	-1.169544	1.892199	0.070737
C	-0.932957	0.451586	-0.41652
C	-1.846853	-0.506201	0.336024
O	-2.675855	-1.20733	-0.183549
C	0.50489	0.033095	-0.216236
C	1.179087	-1.350592	-0.433654
C	2.154918	-0.419913	0.31743
C	1.821774	0.727281	-0.664078
O	1.035037	0.024425	1.180437
H	-0.539905	2.591231	-0.486631
H	-2.213302	2.185947	-0.071006
H	-0.918807	1.98607	1.131145
H	-1.173923	0.356964	-1.481116
H	-1.694082	-0.505886	1.437595
H	0.766935	-2.168421	0.158623
H	1.426357	-1.644933	-1.456559
H	3.098522	-0.655563	0.807786
H	1.977863	1.731759	-0.269604
H	2.129002	0.621342	-1.707555
