19

O	-3.164991	-0.431797	0.148569
C	-2.363196	0.461669	-0.004272
C	-0.89504	0.288139	0.013748
C	-0.149707	1.380413	-0.220835
C	1.349896	1.467834	-0.228678
C	2.060654	0.380761	0.589422
O	2.112843	-0.899418	-0.002603
C	0.909045	-1.428699	-0.539637
C	-0.369672	-1.11011	0.239841
H	-2.697563	1.509488	-0.177499
H	-0.679714	2.312695	-0.417119
H	1.725307	1.4595	-1.262411
H	1.64206	2.44452	0.178342
H	3.107177	0.666515	0.734904
H	1.596072	0.334835	1.587178
H	0.7803	-1.094254	-1.581241
H	1.063635	-2.51216	-0.564122
H	-1.155883	-1.80558	-0.07211
H	-0.216089	-1.305881	1.308807
