19

O	-2.767711	-0.228041	-0.265991
C	-1.786795	-0.295923	0.754773
C	-0.410992	-0.049806	0.199276
C	0.180003	-0.923379	-0.92778
C	1.580452	-0.285994	-0.823478
C	2.011952	-0.7176	0.604054
C	0.889379	0.226168	1.063844
C	1.10691	1.108199	-0.182337
O	-0.292166	1.284553	-0.417307
H	-2.644712	0.62136	-0.706036
H	-1.991215	0.427306	1.559284
H	-1.842262	-1.301805	1.185087
H	0.188288	-1.995582	-0.712948
H	-0.344149	-0.740204	-1.866318
H	2.254229	-0.347513	-1.675897
H	1.959749	-1.782197	0.849863
H	2.990098	-0.321607	0.892373
H	0.761889	0.614873	2.073096
H	1.72164	2.003289	-0.262222
