19

C	-2.28666	-0.489123	-0.922382
C	-1.054899	-0.428658	-0.068914
C	-1.011327	0.120772	1.346891
C	-0.155853	0.74166	0.273775
O	-0.279973	2.044543	-0.173972
C	1.106057	-0.144555	-0.06182
C	2.393893	0.350616	-0.627242
O	1.089842	-1.294916	0.801181
C	0.231526	-1.275832	-0.356573
H	-2.918843	0.387208	-0.750696
H	-2.033325	-0.50826	-1.98881
H	-2.883529	-1.383122	-0.705578
H	-1.883941	0.717224	1.599211
H	-0.57769	-0.447115	2.160737
H	-0.014999	2.637506	0.53821
H	2.989556	0.858141	0.140534
H	2.984143	-0.479784	-1.023403
H	2.200645	1.06833	-1.430027
H	0.322603	-2.096428	-1.060254
