19

C	2.759516	0.054641	-0.480802
C	1.514661	-0.325777	0.315457
O	1.377105	-1.730813	0.490199
C	0.246558	0.23977	-0.315255
O	0.209778	1.682023	-0.296549
C	-1.085254	1.69376	0.335337
C	-1.063055	0.150044	0.520032
C	-2.168364	-0.615094	-0.012803
C	-3.085624	-1.238654	-0.477238
H	2.712861	-0.36221	-1.495038
H	2.838281	1.142018	-0.567689
H	3.658138	-0.330599	0.00814
H	1.595448	0.08019	1.331119
H	1.376334	-2.140418	-0.382419
H	0.126188	-0.149209	-1.338194
H	-1.091482	2.290556	1.25346
H	-1.870822	2.048691	-0.341005
H	-0.853683	-0.146273	1.551499
H	-3.896956	-1.794564	-0.877439
