19

C	-1.577658	2.115665	-0.0884
C	-1.35449	0.638103	-0.062585
C	-2.2167	-0.331884	0.23044
C	-1.567607	-1.676514	0.09183
O	-0.221046	-1.39656	-0.291793
C	-0.023892	0.011145	-0.421583
C	1.146569	0.454602	0.482064
C	2.430416	-0.275141	0.146957
O	3.464986	0.271557	-0.142087
H	-0.93291	2.634198	0.63122
H	-1.343229	2.532897	-1.075727
H	-2.614936	2.364571	0.148228
H	-3.253546	-0.202536	0.516018
H	-1.572851	-2.256221	1.027755
H	-2.051791	-2.30038	-0.676073
H	0.242972	0.241937	-1.467444
H	1.32689	1.529669	0.391149
H	0.877144	0.221915	1.520982
H	2.350908	-1.381887	0.182601
