19

C	-2.265594	-0.408136	0.090826
C	-0.753888	-0.353889	0.039702
C	0.017742	-0.904854	1.274148
C	1.459672	-0.293363	1.135569
C	1.344743	0.533252	-0.155461
O	1.235171	-0.36558	-1.266253
C	-0.085441	-0.962682	-1.207674
C	-0.100189	1.038243	-0.035925
O	-0.57801	2.135231	0.012388
H	-2.640634	0.146155	0.956504
H	-2.704402	0.04233	-0.804946
H	-2.627644	-1.438914	0.165356
H	-0.464915	-0.578188	2.199767
H	0.026024	-1.998615	1.273995
H	1.715834	0.336692	1.992746
H	2.233572	-1.056225	1.026597
H	2.124186	1.265311	-0.355796
H	-0.63361	-0.713229	-2.125525
H	0.012037	-2.053953	-1.144884
