19

C	2.557243	-0.899263	-0.186459
C	1.260591	-0.33848	0.372703
O	1.29752	1.127454	0.222704
C	0.060865	1.689948	-0.262482
C	-0.865926	0.513744	-0.128465
C	-1.459017	-0.102763	1.168311
C	-1.443863	-1.153918	0.052007
O	-1.977008	-0.104327	-0.89075
C	-0.005245	-0.720432	-0.380928
H	3.416662	-0.431518	0.301028
H	2.608078	-1.979817	-0.016247
H	2.628621	-0.710679	-1.261848
H	1.200448	-0.558731	1.445413
H	-0.194618	2.55266	0.360737
H	0.159943	2.012887	-1.307376
H	-0.808233	-0.241498	2.032612
H	-2.44878	0.266654	1.435655
H	-1.925861	-2.129703	-0.009366
H	0.171759	-0.898282	-1.444362
