19

C	-4.110451	-0.645297	-0.000138
C	-2.968463	0.356348	9e-05
O	-1.745378	-0.353336	-7e-06
C	-0.61605	0.49041	0.000109
C	0.62032	-0.397364	7.1e-05
C	1.913849	0.390358	9.4e-05
O	1.954973	1.602552	-0.000161
C	3.129306	-0.409835	1.3e-05
C	4.123733	-1.088004	-4.5e-05
H	-4.060722	-1.284681	0.88587
H	-5.073179	-0.125611	-2.8e-05
H	-4.060714	-1.284295	-0.886423
H	-3.026535	1.01141	-0.885717
H	-3.026591	1.011071	0.886143
H	-0.612364	1.148085	-0.883082
H	-0.612428	1.147925	0.883423
H	0.61476	-1.063279	0.872526
H	0.614752	-1.063166	-0.872476
H	5.012792	-1.670893	-5.3e-05
