19

O	-1.753613	1.584052	-0.086529
C	-1.738677	0.185074	-0.065307
C	-0.80233	-0.619072	0.892653
O	-0.920912	-1.736015	-0.075397
C	-0.660538	-0.535629	-0.904633
C	0.438038	-0.125427	0.112519
C	1.802348	-0.844821	0.125013
C	2.478881	0.517083	-0.206438
C	1.154096	1.244446	0.159915
H	-2.443345	1.888649	0.51081
H	-2.731748	-0.266481	-0.166078
H	-0.910614	-0.860121	1.951986
H	-0.599251	-0.672831	-1.985361
H	2.064112	-1.206451	1.124395
H	1.936149	-1.666937	-0.580866
H	3.366936	0.782365	0.371292
H	2.719998	0.61062	-1.268815
H	1.170987	1.658743	1.172702
H	0.792073	2.018234	-0.516988
