19

O	3.143848	-0.685157	-0.095576
C	2.330305	0.469534	0.019982
C	0.902505	0.241796	-0.461039
C	-0.041814	1.463055	-0.241338
C	-0.922838	0.622099	0.734315
C	0.01991	-0.61966	0.48878
C	-1.141452	-1.383259	-0.204671
C	-2.036758	-0.144559	0.01109
O	-3.174923	0.109827	-0.255903
H	2.777759	-1.364714	0.479495
H	2.317001	0.850572	1.055475
H	2.809574	1.236713	-0.598469
H	0.939021	-0.136762	-1.487372
H	0.4538	2.29864	0.260779
H	-0.555556	1.853624	-1.122473
H	-1.164981	1.059015	1.70373
H	0.519848	-1.144394	1.305241
H	-0.992688	-1.70702	-1.239157
H	-1.514321	-2.237074	0.371871
