19

C	-0.051483	2.132776	-0.244463
C	-0.48584	0.736248	0.136807
C	-1.871342	0.511306	0.732511
C	-1.512769	-0.067582	-0.612489
O	-1.14031	-1.419222	-0.679972
C	-0.15348	-1.648324	0.319208
C	0.570107	-0.294527	0.566907
C	1.803449	-0.204295	-0.308692
O	2.911351	0.051549	0.087109
H	0.371594	2.663681	0.615742
H	0.707757	2.127578	-1.034152
H	-0.902374	2.717197	-0.607148
H	-1.998685	-0.153992	1.579632
H	-2.534428	1.370337	0.7419
H	-2.001039	0.264989	-1.520986
H	-0.612212	-2.002457	1.251375
H	0.513066	-2.436931	-0.044672
H	0.884821	-0.1824	1.608421
H	1.611315	-0.420229	-1.385942
