19

C	3.368881	-0.382196	0.056569
O	1.982606	-0.436029	0.298209
C	1.266163	0.551476	-0.411442
C	-0.190605	0.343735	-0.159537
O	-1.082956	1.428607	-0.453362
C	-1.116357	0.832344	0.856799
C	-1.933359	-0.496303	0.799016
C	-2.421506	-0.787346	-0.595951
C	-0.970688	-1.009541	-0.263728
H	3.801467	0.580358	0.371942
H	3.83212	-1.184336	0.63576
H	3.603523	-0.529971	-1.009508
H	1.550065	1.567746	-0.093931
H	1.473968	0.474965	-1.493882
H	-0.980105	1.489836	1.707156
H	-2.292794	-1.011055	1.679519
H	-3.009209	-1.695221	-0.688737
H	-2.715727	0.023371	-1.2504
H	-0.475677	-1.96932	-0.307047
