19

C	-2.43734	0.272409	-0.606392
C	-1.118021	-0.169303	-0.06542
O	-1.058142	-1.271878	0.841639
C	-0.248765	-1.315978	-0.335489
C	1.035619	-0.417566	-0.10109
C	2.37189	-0.585559	-0.743096
O	0.941014	0.116069	1.22391
C	0.174815	0.737196	0.184858
C	0.301596	2.207409	-0.042901
H	-2.307157	0.900307	-1.494085
H	-3.044371	-0.594852	-0.879441
H	-2.990326	0.855686	0.138601
H	-0.358108	-2.159816	-1.007591
H	2.986737	0.306435	-0.59567
H	2.904185	-1.441413	-0.312524
H	2.265975	-0.763175	-1.818768
H	-0.124316	2.49312	-1.01043
H	-0.226754	2.76944	0.735678
H	1.352396	2.509091	-0.02298
