19

C	-3.037681	-0.653244	-0.098288
O	-2.201588	0.486859	-0.150223
C	-0.863275	0.17303	-0.360426
C	0.107215	1.157282	0.217286
O	1.387732	1.269158	-0.354434
C	2.169286	0.143305	-0.025711
C	1.856062	-1.172796	-0.686926
C	1.315104	-0.86659	0.700508
C	-0.035271	-0.206103	0.862743
H	-2.744864	-1.336009	0.711997
H	-4.054768	-0.297357	0.080967
H	-3.017111	-1.212215	-1.045764
H	-0.645831	-0.292239	-1.321271
H	-0.272214	2.079454	0.645015
H	3.186646	0.401894	0.247194
H	1.191893	-1.188889	-1.542089
H	2.664257	-1.895206	-0.740378
H	1.692372	-1.434124	1.54233
H	-0.558171	-0.322748	1.804133
