19

C	2.928022	-0.552706	-0.27311
C	1.553337	-0.019194	-0.023523
C	0.890356	0.442573	1.303638
C	-0.195361	0.344217	0.201889
C	0.754627	1.071933	-0.784269
O	0.398239	-0.944238	-0.226354
C	-1.673309	0.436689	0.333602
C	-2.514883	-0.765429	0.287757
O	-2.436517	0.121313	-0.831014
H	3.675307	0.224888	-0.086299
H	3.137121	-1.400363	0.386369
H	3.026279	-0.886077	-1.310517
H	0.830409	-0.32096	2.080896
H	1.146162	1.432613	1.690812
H	0.563842	0.860616	-1.836698
H	0.99808	2.119573	-0.588728
H	-2.025235	1.309523	0.885904
H	-2.034029	-1.730409	0.147585
H	-3.468451	-0.774501	0.813717
