19

O	-1.13501	2.123655	-0.416453
C	-0.04805	1.246108	-0.475971
C	0.513282	0.714444	0.802654
C	1.925812	0.15136	0.825558
C	2.025474	-0.741061	-0.434373
C	0.590931	-1.256285	-0.696212
C	-0.337286	-0.199205	-0.115258
C	-1.69919	-0.590442	0.308905
O	-2.120276	-1.723179	0.243073
H	-0.819755	2.964144	-0.067672
H	0.619539	1.410314	-1.323061
H	0.069596	1.094662	1.717602
H	2.694717	0.931623	0.843332
H	2.052838	-0.446717	1.735038
H	2.375332	-0.146971	-1.28478
H	2.74315	-1.555638	-0.308993
H	0.404567	-1.442084	-1.75857
H	0.396162	-2.196286	-0.170866
H	-2.319701	0.233631	0.713192
