19

C	-2.953495	-0.548107	0.129042
C	-1.849295	0.435141	-0.262414
C	-0.479008	0.035535	0.270829
O	-0.096401	-1.1869	-0.352361
C	1.143449	-1.69167	0.081481
C	2.242172	-0.672604	0.013685
C	1.973116	0.635107	-0.062085
C	0.584043	1.123001	0.045055
O	0.304421	2.304689	0.033887
H	-3.914729	-0.243696	-0.295343
H	-2.724928	-1.554684	-0.231218
H	-3.071468	-0.59876	1.217522
H	-1.777429	0.510881	-1.353744
H	-2.063171	1.44106	0.108533
H	-0.541215	-0.114575	1.367446
H	1.075539	-2.088045	1.113916
H	1.375563	-2.544315	-0.566659
H	3.265286	-1.041053	0.033702
H	2.746508	1.392464	-0.139927
