19

O	-1.862228	-1.500923	-0.405925
C	-1.087934	-0.432037	0.043124
C	-1.77621	0.866715	0.519957
C	-0.676947	1.710299	-0.195303
C	-0.073391	0.428002	-0.838087
C	1.061833	-0.165671	-0.014357
C	2.412881	-0.540037	-0.431108
O	2.181357	0.581842	0.434089
C	0.098783	-0.913484	0.91863
H	-2.559982	-1.154799	-0.972434
H	-2.757227	0.992791	0.047698
H	-1.900301	0.993073	1.599469
H	-1.06616	2.431457	-0.91604
H	0.016655	2.230359	0.468723
H	-0.007591	0.387647	-1.926236
H	2.906544	-1.393647	0.033025
H	2.760718	-0.291566	-1.433477
H	0.205905	-2.000434	0.901961
H	0.094314	-0.564944	1.954863
