19

O	-3.070639	-0.183293	-0.532055
C	-1.952408	-0.041112	-0.152513
C	-1.235957	0.423899	1.113318
C	0.047245	0.126307	0.318044
C	0.957139	-1.02428	0.733361
C	2.112847	-0.924401	-0.273254
C	2.362213	0.597264	-0.397222
C	0.994781	1.26762	-0.0782
O	-0.797106	-0.287591	-0.841564
H	-1.414338	1.470659	1.367234
H	-1.41643	-0.2016	1.989728
H	1.317668	-0.837801	1.753474
H	0.435134	-1.984478	0.728247
H	3.002634	-1.478181	0.036103
H	1.785562	-1.334184	-1.234466
H	3.115373	0.917534	0.329505
H	2.738301	0.873117	-1.384933
H	1.085044	1.976527	0.750514
H	0.577844	1.813704	-0.92766
