19

C	2.552421	0.379278	0.176452
O	1.679433	-0.340946	-0.687812
C	0.407804	-0.431303	-0.216772
C	-0.683575	-1.382772	-0.58129
C	-1.66071	-0.258319	-0.92424
C	-0.770705	0.635279	-0.010584
O	-0.601287	1.992571	-0.236301
C	-0.986406	0.052266	1.417034
C	-0.256768	-1.189783	0.908796
H	2.633753	-0.113978	1.154453
H	3.532262	0.392875	-0.305126
H	2.203238	1.408733	0.321479
H	-0.578954	-2.350366	-1.053573
H	-1.56946	0.040633	-1.971855
H	-2.71668	-0.369924	-0.650045
H	-1.449743	2.434698	-0.11657
H	-0.393478	0.596058	2.157643
H	-2.021623	-0.05046	1.764275
H	0.123148	-2.029151	1.475857
