19

C	0.042098	2.072958	-0.082709
O	0.302249	0.940645	0.743058
C	0.402719	-0.279364	0.06758
C	1.663042	-0.409038	-0.763393
O	2.815494	-0.201969	0.030697
C	-0.102679	-1.450283	0.837113
C	-0.87366	-0.980359	-0.399835
C	-2.161594	-0.371715	-0.250941
C	-3.25515	0.119245	-0.145145
H	-0.860813	1.925663	-0.683829
H	-0.110028	2.915849	0.594624
H	0.886962	2.302551	-0.745102
H	1.73064	-1.417127	-1.184898
H	1.631364	0.294923	-1.610966
H	2.601493	0.523121	0.630214
H	0.435556	-2.388997	0.774615
H	-0.564686	-1.235214	1.792804
H	-0.763654	-1.594886	-1.28989
H	-4.217429	0.556054	-0.043633
