19

C	1.692933	-0.829728	-1.000434
C	0.705088	-0.393825	0.077093
O	1.330554	-0.426906	1.35788
C	-0.636149	-1.151026	0.13088
C	-1.493519	-0.228422	1.045409
C	-1.387081	0.765428	-0.167583
C	-1.423832	-0.522389	-1.057833
C	0.103257	1.027384	-0.147457
O	0.725446	2.056169	-0.212124
H	1.227968	-0.926896	-1.985106
H	2.497197	-0.090953	-1.084196
H	2.133326	-1.791886	-0.723296
H	1.953177	0.310237	1.383297
H	-0.584463	-2.228446	0.283582
H	-2.516193	-0.591987	1.164371
H	-1.071146	0.072262	2.003967
H	-2.049722	1.616677	-0.307716
H	-2.436709	-0.923043	-1.132411
H	-0.96561	-0.484592	-2.048985
