19

C	-0.739402	2.16357	0.15884
C	-0.672589	0.664444	0.007078
C	-1.50546	-0.144406	-1.043525
C	-0.457766	-1.222176	-0.697918
O	-0.726969	-1.531902	0.679992
C	-0.925904	-0.215628	1.240887
C	0.59181	-0.07586	-0.615661
C	1.843691	-0.270787	0.187739
O	2.890508	0.278622	-0.060942
H	0.003038	2.523604	0.879396
H	-0.55098	2.666181	-0.79445
H	-1.728686	2.475203	0.513189
H	-2.548333	-0.371083	-0.806979
H	-1.408331	0.253037	-2.055162
H	-0.305507	-2.141885	-1.259457
H	-1.948747	-0.11614	1.62394
H	-0.224066	-0.043007	2.064532
H	0.842152	0.358556	-1.585306
H	1.754876	-0.973171	1.043253
