19

C	2.943648	-0.449827	-0.063742
C	1.498331	-0.167512	-0.405669
C	0.400196	-0.914546	0.283314
C	0.628126	0.540422	0.625147
C	-0.531979	1.28748	0.05452
O	-0.804916	2.448402	0.159166
O	-1.305597	0.41955	-0.670505
C	-0.944607	-0.960821	-0.433109
C	-2.042217	-1.637396	0.376346
H	3.330914	-1.280733	-0.663025
H	3.572901	0.425139	-0.255388
H	3.056113	-0.718298	0.991692
H	1.318472	0.105105	-1.443659
H	0.641273	-1.708102	0.981392
H	1.068651	0.90177	1.544553
H	-0.861551	-1.429412	-1.420613
H	-3.005907	-1.532117	-0.12799
H	-1.824394	-2.704347	0.491085
H	-2.121339	-1.189421	1.371823
