19

C	3.807217	-0.787752	0.129597
C	2.472647	-0.239889	-0.061337
C	1.367775	0.205379	-0.240574
C	0.026276	0.766541	-0.383046
O	-0.025605	2.151313	-0.036796
C	-1.001964	-0.007263	0.456258
C	-2.4824	0.34155	0.206113
C	-2.605709	-1.136122	-0.217939
O	-1.192194	-1.358514	-0.010891
H	4.574091	-0.013894	0.014555
H	3.921108	-1.225789	1.127133
H	4.016587	-1.573641	-0.604209
H	-0.290356	0.712371	-1.432152
H	0.521714	2.269249	0.747136
H	-0.690105	0.013865	1.510124
H	-3.056076	0.635321	1.085439
H	-2.641802	1.075127	-0.585836
H	-3.215346	-1.765497	0.44192
H	-2.900478	-1.32417	-1.25704
