19

C	3.744359	0.084418	0.847448
C	3.127799	-0.194138	-0.535665
C	1.669337	-0.146152	-0.531628
C	0.465014	-0.097936	-0.523922
C	-0.990262	-0.037804	-0.462985
C	-1.576071	-1.314768	0.190664
O	-2.974025	-1.23212	0.368304
C	-1.417384	1.188195	0.352084
O	-2.093508	2.082158	-0.075736
H	4.835811	0.038575	0.792395
H	3.458659	1.076293	1.207698
H	3.404869	-0.652212	1.580574
H	3.511168	0.533433	-1.262277
H	3.456256	-1.178598	-0.8928
H	-1.416775	0.085374	-1.466986
H	-1.27526	-2.187601	-0.405396
H	-1.148326	-1.436932	1.19068
H	-3.388842	-1.152191	-0.497086
H	-1.034048	1.182659	1.396682
