19

C	-0.845177	1.770329	-0.973355
C	-0.043913	0.770734	-0.193822
C	1.518406	0.721843	-0.215637
O	2.016719	-0.032522	0.901996
C	1.510192	-0.736259	-0.246098
C	-0.049696	-0.768886	-0.217119
C	-0.879471	-1.731371	-1.011853
C	-0.562268	0.003457	0.993224
O	-1.955685	0.080053	1.124067
H	-1.910996	1.542238	-0.905003
H	-0.693911	2.783715	-0.581012
H	-0.560904	1.779267	-2.032063
H	2.182638	1.4534	-0.66194
H	2.169086	-1.454385	-0.721623
H	-0.728982	-2.763259	-0.668589
H	-1.941152	-1.491464	-0.90772
H	-0.631773	-1.702602	-2.079424
H	-0.012046	-0.006702	1.929576
H	-2.248664	-0.699537	1.607257
