19

O	-2.068621	-1.296961	-0.08877
C	-1.014665	-0.395565	0.014361
C	-0.193033	-0.08615	1.292885
C	0.702922	0.589148	0.198042
C	2.177856	0.21285	0.154624
C	1.668981	-1.208902	-0.317909
C	0.30495	-0.557626	-0.758585
O	-0.028777	1.753079	-0.161573
C	-1.307633	1.099623	-0.410775
H	-2.780718	-1.007688	0.493361
H	-0.625965	0.591528	2.032183
H	0.237337	-0.963487	1.771882
H	2.71167	0.721904	-0.652491
H	2.756516	0.285102	1.078835
H	2.223008	-1.639872	-1.152193
H	1.616354	-1.949307	0.480542
H	0.274758	-0.355352	-1.831005
H	-2.087035	1.553519	0.212923
H	-1.583014	1.194447	-1.467148
