19

C	2.187896	-0.280496	0.285467
C	1.51595	1.112529	0.086512
C	0.094596	0.688456	-0.200283
O	-0.950486	1.479443	-0.738749
C	-1.11972	0.908919	0.584551
C	-1.933269	-0.366339	0.66072
C	-1.25392	-1.338888	-0.345499
C	0.140232	-0.765078	-0.636768
O	1.156519	-1.275637	0.220948
H	2.936776	-0.463514	-0.498331
H	2.678966	-0.384102	1.256123
H	1.601341	1.75256	0.967353
H	1.94828	1.649004	-0.763342
H	-1.165582	1.645521	1.38305
H	-1.870102	-0.746416	1.686609
H	-2.993	-0.209755	0.437673
H	-1.185459	-2.359821	0.036886
H	-1.819341	-1.375703	-1.27969
H	0.429262	-0.892835	-1.692114
