19

C	2.549167	0.115263	-0.514889
C	1.169385	-0.052539	0.045437
O	0.897867	-1.262987	0.784113
C	0.122841	-0.973935	-0.393831
C	-1.153362	-0.119265	-0.159945
O	-2.38707	-0.624539	-0.559151
C	-0.667092	1.235775	-0.763223
C	0.304139	1.167748	0.467457
C	-0.877934	0.515145	1.235921
H	2.914648	-0.825807	-0.93335
H	2.556685	0.877169	-1.301638
H	3.247721	0.436623	0.265983
H	0.191258	-1.678528	-1.217605
H	-2.555038	-1.437932	-0.07095
H	-0.229667	1.217745	-1.765958
H	-1.41744	2.026031	-0.685254
H	0.818869	2.050225	0.843901
H	-0.648656	-0.14029	2.073962
H	-1.647615	1.245815	1.489655
