19

C	2.657002	-0.305462	-0.056785
C	1.269829	0.249431	-0.05138
C	0.879704	1.523404	-0.179218
C	-0.626981	1.691855	-0.164433
C	-1.129578	0.272364	0.089767
O	-2.23834	-0.196133	-0.623184
C	-0.751048	-0.403476	1.390301
C	0.073685	-0.635939	0.12843
O	0.063838	-1.890486	-0.472884
H	2.898648	-0.77847	0.903436
H	2.75099	-1.086664	-0.819257
H	3.400191	0.470913	-0.256247
H	1.553684	2.368798	-0.267134
H	-0.962593	2.402763	0.601806
H	-1.008241	2.057616	-1.127143
H	-3.021651	-0.117518	-0.069418
H	-0.341304	0.185953	2.20459
H	-1.378852	-1.240765	1.680368
H	-0.730532	-1.922739	-1.022547
