19

C	-3.184752	-0.641346	-0.210154
C	-1.978489	0.265934	-0.061439
O	-1.980133	1.410239	-0.457028
C	-0.74529	-0.349943	0.573927
C	0.393389	0.601494	1.007404
C	1.435661	-0.368913	0.369641
C	0.261266	-1.017315	-0.425367
C	2.53721	0.256087	-0.439779
O	3.713617	0.043063	-0.295643
H	-3.595576	-0.870917	0.780392
H	-3.950425	-0.155168	-0.8156
H	-2.898619	-1.597818	-0.661966
H	-1.029052	-1.058529	1.357456
H	0.315659	1.543349	0.456958
H	0.505809	0.813058	2.071717
H	1.871297	-1.05561	1.098248
H	0.169788	-0.583563	-1.42656
H	0.256971	-2.105497	-0.505465
H	2.172305	0.968292	-1.219203
