19

O	2.888069	-0.155974	-0.729117
C	1.748997	-0.692506	-0.068855
C	0.549657	0.133924	-0.503863
C	0.525547	1.570793	0.084987
C	-0.478786	1.094535	1.167437
C	-0.755029	-0.184608	0.326661
O	-0.750426	-1.362655	1.118935
C	-1.961592	-0.105029	-0.489014
C	-2.949003	-0.075092	-1.175455
H	3.662986	-0.635963	-0.423036
H	1.589622	-1.748146	-0.336673
H	1.86386	-0.65316	1.024355
H	0.440165	0.060584	-1.58828
H	1.486405	1.95448	0.430891
H	0.085362	2.294823	-0.603563
H	0.010903	0.806084	2.100472
H	-1.338263	1.726473	1.394539
H	-1.155781	-2.070132	0.606132
H	-3.825151	-0.038115	-1.774767
