19

C	2.409737	-1.160399	0.136884
C	1.047412	-0.64312	-0.319021
C	-0.125303	-1.593285	0.01761
C	-1.366687	-0.717715	-0.008088
O	-2.515313	-1.04599	-0.129506
C	-0.876554	0.756216	0.137942
O	-1.590395	1.721829	0.096865
C	0.637482	0.7178	0.303503
C	1.33926	1.963369	-0.230826
H	3.21243	-0.466442	-0.130391
H	2.430435	-1.29632	1.224667
H	2.638116	-2.126695	-0.32439
H	1.070303	-0.510047	-1.409959
H	-0.222036	-2.453107	-0.649326
H	-0.012829	-1.986277	1.03907
H	0.80587	0.64515	1.392327
H	1.238261	2.028562	-1.319279
H	0.888044	2.862039	0.197413
H	2.404992	1.95923	0.012982
