19

C	1.060509	-1.336216	-0.286361
O	1.370818	-0.168152	-1.029346
C	1.489277	0.964984	-0.187709
C	0.201589	1.153992	0.633806
O	0.002705	-0.022382	1.424448
C	-0.195674	-1.1564	0.575426
C	-1.513078	-1.009677	-0.212908
C	-1.765613	0.409748	-0.646673
C	-0.988952	1.41373	-0.252316
H	0.934862	-2.14529	-1.012601
H	1.899825	-1.591257	0.381842
H	2.338241	0.845249	0.505066
H	1.679772	1.823663	-0.83833
H	0.342996	1.971489	1.349293
H	-0.267587	-2.0174	1.248604
H	-1.499627	-1.675668	-1.085293
H	-2.35093	-1.351506	0.409942
H	-2.630238	0.589208	-1.2805
H	-1.163843	2.434815	-0.578419
