19

O	-2.741416	0.025468	-0.565663
C	-1.914199	-0.163137	0.569603
C	-0.456361	-0.082068	0.218266
O	-0.123057	1.188218	-0.329675
C	1.23546	1.46402	0.039209
C	1.823056	0.087964	0.340531
C	1.629195	-0.850855	-0.895909
C	0.292791	-1.294261	-0.302579
C	0.643701	-0.644783	1.045931
H	-2.448615	0.845804	-0.978719
H	-2.136699	0.580865	1.350765
H	-2.148157	-1.153855	0.972264
H	1.723217	1.970147	-0.800561
H	1.26593	2.124631	0.919248
H	2.802988	0.097211	0.815648
H	1.614841	-0.3738	-1.88186
H	2.357086	-1.665698	-0.898221
H	-0.217891	-2.232052	-0.491342
H	0.581234	-1.004031	2.065168
