19

O	2.731819	-0.529641	0.364039
C	2.153371	0.256357	-0.34293
C	0.691768	0.185635	-0.718891
C	-0.091962	1.457641	-0.218802
C	-1.195921	0.808367	0.639747
C	-0.46621	-0.36303	1.307898
C	-0.079307	-0.978846	-0.054411
C	-1.467956	-1.038325	-0.706661
O	-2.122888	0.161062	-0.245141
H	2.688425	1.134752	-0.775428
H	0.656115	0.129747	-1.814781
H	0.5427	2.124734	0.376377
H	-0.520529	2.037108	-1.038096
H	-1.75481	1.496743	1.274334
H	0.39585	-0.070792	1.910391
H	-1.134937	-0.993554	1.898512
H	0.46442	-1.921822	-0.034948
H	-1.43068	-1.038741	-1.803083
H	-2.040701	-1.916337	-0.380155
