19

C	2.813346	-0.289577	0.103535
O	1.657541	-1.088805	0.274555
C	0.626042	-0.871334	-0.661236
C	-0.473831	0.062408	-0.121137
C	-1.240963	-0.505355	1.106507
C	-2.434601	-0.611019	0.139733
O	-1.662635	-0.063944	-0.954879
C	-0.042967	1.450692	-0.008415
C	0.285194	2.604366	0.081215
H	2.606733	0.777016	0.249338
H	3.536675	-0.619178	0.853671
H	3.252007	-0.430868	-0.895656
H	1.009138	-0.479513	-1.613368
H	0.151033	-1.839053	-0.859406
H	-0.834852	-1.444023	1.483936
H	-1.365088	0.197096	1.929491
H	-2.787	-1.625156	-0.080928
H	-3.296929	0.021116	0.379582
H	0.575712	3.623475	0.154725
