19

C	2.395151	0.183127	0.454563
C	1.220948	-0.115494	-0.464948
O	0.808099	-1.499898	-0.311995
C	-0.547164	-1.389868	0.020946
C	-1.237373	-0.244325	-0.770315
O	-2.116371	0.046191	0.365214
C	-0.805208	-0.190607	0.976751
C	-0.081431	0.623368	-0.156493
C	-0.147677	2.127829	-0.195426
H	2.108499	0.076683	1.505586
H	3.214728	-0.511977	0.252764
H	2.764196	1.201468	0.295425
H	1.519972	0.038442	-1.51158
H	-1.027035	-2.35445	0.169656
H	-1.665486	-0.22244	-1.772985
H	-0.722614	-0.107868	2.060634
H	0.531821	2.579273	0.535023
H	0.124375	2.512314	-1.184914
H	-1.165769	2.454032	0.034174
