19

C	1.643455	0.670554	0.454757
O	1.967392	-0.486078	-0.265056
C	0.851464	-1.25958	-0.699883
C	-0.068388	-1.713244	0.404118
C	-1.337612	-1.314489	0.550966
C	-2.024251	-0.3089	-0.277979
C	-1.671915	0.974757	-0.411075
C	-0.560253	1.6629	0.349388
O	0.744047	1.513642	-0.221454
H	1.234547	0.418344	1.446584
H	2.596701	1.197251	0.571403
H	0.285041	-0.703277	-1.452838
H	1.299324	-2.134854	-1.182569
H	0.331542	-2.457959	1.089414
H	-1.948568	-1.798071	1.31392
H	-2.914705	-0.656462	-0.802645
H	-2.258714	1.60316	-1.076652
H	-0.764118	2.738899	0.378609
H	-0.547553	1.300464	1.385094
