19

O	-2.303388	0.212852	-0.462664
C	-1.375828	-0.359382	0.421816
C	-0.278085	0.511072	1.095705
C	0.30668	1.496459	0.051265
C	1.178056	0.545028	-0.79211
C	1.957827	-0.230909	0.281652
C	0.689811	-0.732391	0.964845
C	-0.233837	-1.160252	-0.231426
O	0.324309	-0.467618	-1.350569
H	-2.982565	0.655422	0.056
H	-1.869343	-0.992265	1.1751
H	-0.481119	0.947136	2.075257
H	-0.477699	1.970233	-0.542743
H	0.917758	2.274502	0.519958
H	1.742975	1.000447	-1.605676
H	2.570645	-1.030123	-0.143311
H	2.573588	0.409287	0.919331
H	0.768031	-1.411115	1.811039
H	-0.397382	-2.203142	-0.509563
