19

O	-3.165985	0.000308	-0.611134
C	-2.202767	-0.000244	0.113465
C	-0.779372	-0.000118	-0.366614
C	0.121614	-1.009271	0.396305
C	1.402025	-1.292778	-0.39707
C	2.255773	0.000263	-0.457656
C	1.401725	1.293085	-0.396592
C	0.12139	1.008995	0.39668
O	0.389922	-0.000297	1.413089
H	-2.309927	-0.000812	1.221541
H	-0.745935	0.00011	-1.457687
H	-0.34469	-1.903051	0.820084
H	1.9774	-2.090458	0.083332
H	1.130479	-1.654684	-1.395497
H	2.916544	0.00018	0.411959
H	2.900417	0.0005	-1.340475
H	1.976923	2.09072	0.0841
H	1.130096	1.6553	-1.394885
H	-0.345133	1.90251	0.820773
