19

C	-2.339741	-0.00014	0.194236
C	-0.851139	-4.8e-05	0.515671
C	-0.118873	1.258678	0.015808
O	-0.701739	2.152551	-0.547008
C	1.382128	1.274721	0.267047
C	2.042933	0.000119	-0.289449
C	1.382292	-1.27457	0.267057
C	-0.118734	-1.258737	0.015916
O	-0.701467	-2.15259	-0.547068
H	-2.818277	-0.891262	0.605109
H	-2.81837	0.890972	0.605025
H	-2.498427	-0.000199	-0.886031
H	-0.688395	-4e-06	1.606503
H	1.798012	2.17796	-0.183955
H	1.551391	1.326928	1.351605
H	1.96706	0.000113	-1.383412
H	3.109573	0.000191	-0.047579
H	1.798271	-2.17775	-0.183977
H	1.551613	-1.326775	1.351605
