19

C	-2.875204	-0.198896	0.214168
C	-1.743094	0.792436	-0.08846
C	-0.399207	0.143903	-0.130442
O	-0.114855	-0.828848	-1.139981
C	1.275867	-0.783873	-0.728076
C	1.271952	-1.462356	0.664803
C	0.466344	-0.247815	1.118205
C	1.012765	0.616214	0.001988
O	1.652988	1.822397	0.081324
H	-3.847777	0.301767	0.19831
H	-2.89132	-1.001906	-0.527945
H	-2.741918	-0.656257	1.199461
H	-1.930131	1.284833	-1.051367
H	-1.715966	1.584733	0.669144
H	1.975416	-1.040297	-1.521271
H	0.813379	-2.454778	0.709459
H	2.267887	-1.47483	1.115205
H	0.181719	0.058574	2.116967
H	1.527117	2.292087	-0.751821
