19

C	-2.567255	0.217123	0.151613
C	-1.071948	0.240855	0.482374
C	-0.421171	1.578563	0.19109
C	0.792765	1.72649	-0.334711
C	1.689542	0.578726	-0.717004
C	1.218357	-0.755125	-0.128052
O	1.601444	-0.767523	1.247532
C	-0.306715	-0.86409	-0.23995
O	-0.841667	-1.756908	-0.855168
H	-2.734177	0.40525	-0.912863
H	-3.001257	-0.756822	0.387367
H	-3.096842	0.984705	0.724095
H	-0.941913	0.041186	1.558325
H	-1.014791	2.454774	0.441969
H	1.179735	2.726021	-0.515942
H	1.744273	0.491707	-1.810804
H	2.715436	0.754233	-0.370862
H	1.662312	-1.59818	-0.672153
H	1.407549	-1.642676	1.599809
