19

O	2.71775	-0.626002	-0.540335
C	1.944972	0.058048	0.409119
C	1.436822	1.421559	-0.021202
C	0.494035	0.272921	0.164024
C	-0.482778	-0.428321	-0.792245
C	-0.829909	-1.379004	0.398158
C	-0.765242	0.052334	1.024212
C	-1.559125	0.555955	-0.20969
O	-2.917417	0.198904	-0.235188
H	2.499314	-1.561753	-0.478683
H	2.292741	-0.0395	1.43898
H	1.456023	2.227496	0.705834
H	1.686415	1.715884	-1.035882
H	-0.310198	-0.691627	-1.83659
H	-1.812586	-1.847786	0.371723
H	-0.047464	-2.075859	0.708523
H	-0.919659	0.335714	2.065795
H	-1.411024	1.611966	-0.467028
H	-3.268873	0.421307	-1.10275
