19

C	-0.311225	2.057116	-0.538331
C	-0.389566	0.619937	-0.079496
C	-1.328871	0.256841	1.092242
O	-1.940003	-0.822372	0.345308
C	-1.122383	-0.557808	-0.807589
C	0.176278	-1.403386	-0.818327
C	0.877992	-0.251546	-0.078844
C	2.281507	0.161212	-0.123777
O	1.707434	-0.414046	1.058862
H	0.222371	2.14633	-1.49033
H	-1.310971	2.48441	-0.668905
H	0.218268	2.673794	0.198006
H	-0.84175	-0.086894	2.011493
H	-2.062697	1.035686	1.336162
H	-1.701539	-0.467078	-1.729839
H	0.095809	-2.33968	-0.262088
H	0.582959	-1.600738	-1.81463
H	3.009197	-0.463774	-0.640977
H	2.546519	1.215093	-0.047524
