19

C	-2.318928	-0.978326	-0.690431
C	-1.33771	-0.158651	0.095962
C	-0.646205	-0.620576	1.331563
C	0.227836	-0.270289	0.132327
C	1.269964	-1.165261	-0.486485
O	2.545505	-0.906633	0.078
C	0.285108	1.210465	-0.004495
O	1.195577	1.947253	-0.28843
C	-1.251251	1.382703	0.045698
H	-2.067211	-2.042801	-0.655525
H	-3.330989	-0.865073	-0.284247
H	-2.348015	-0.66977	-1.74099
H	-0.629526	-0.007389	2.229241
H	-0.68303	-1.688642	1.528659
H	1.048991	-2.22161	-0.301616
H	1.284674	-1.017029	-1.57807
H	2.717609	0.033866	-0.059439
H	-1.68209	1.929928	0.88979
H	-1.611945	1.823174	-0.889206
