19

C	-0.884467	1.84344	0.597691
C	-0.334023	0.468804	0.245149
C	-1.185977	-0.267864	-0.812861
C	-2.518773	-0.604141	-0.331903
C	-3.608575	-0.878724	0.094268
O	0.977257	0.672528	-0.305945
C	2.027373	-0.162537	-0.088626
C	1.848355	-1.319585	0.87778
O	3.061959	0.062152	-0.654301
H	-0.261254	2.319756	1.358592
H	-0.895136	2.485112	-0.288421
H	-1.904255	1.753351	0.979542
H	-0.27903	-0.147019	1.146584
H	-1.247368	0.364168	-1.707146
H	-0.660989	-1.181654	-1.116668
H	-4.576583	-1.123011	0.456342
H	1.650617	-0.959064	1.892355
H	1.020832	-1.975339	0.592233
H	2.775957	-1.890097	0.879577
