19

O	-3.015514	0.791971	0.503595
C	-2.413601	-0.269854	-0.224426
C	-0.977466	-0.394207	0.220409
C	-0.006665	-0.942018	-0.795756
C	1.45433	-1.099563	-0.284876
C	1.664446	-0.620691	1.144416
C	1.478428	0.384531	0.062772
O	2.431315	1.363701	-0.139438
C	0.009935	0.533909	-0.441674
H	-3.953722	0.804417	0.292004
H	-2.935613	-1.222503	-0.040917
H	-2.451029	-0.080495	-1.310272
H	-0.884809	-0.641697	1.272406
H	-0.346325	-1.403255	-1.715403
H	2.189786	-1.716587	-0.784833
H	0.958247	-0.791873	1.950029
H	2.703013	-0.698389	1.453061
H	2.454163	1.571674	-1.080682
H	-0.316565	1.380688	-1.033846
