19

C	-2.775727	-0.968411	-0.11996
C	-1.692094	0.034809	0.230913
O	-1.719772	0.709857	1.228855
C	-0.518038	0.133605	-0.771702
O	0.159584	1.367821	-0.64714
C	1.419936	1.165381	-0.017245
C	1.626992	-0.329293	0.000714
C	2.895121	-0.952931	0.482812
C	0.522429	-0.916614	-0.45458
H	-3.450096	-1.10073	0.726795
H	-3.345772	-0.602184	-0.982274
H	-2.345631	-1.932953	-0.411461
H	-0.91877	0.043198	-1.793728
H	2.196148	1.693226	-0.590852
H	1.417318	1.585521	1.000871
H	2.85438	-2.043478	0.428222
H	3.754258	-0.611587	-0.10783
H	3.099101	-0.671124	1.523389
H	0.348848	-1.980602	-0.552564
