19

C	1.859326	0.144976	1.271561
C	1.039174	0.118792	-0.039416
C	1.879779	-0.473164	-1.180767
C	0.438395	1.47391	-0.365892
C	-0.878841	1.544037	-0.164334
C	-1.432624	0.262416	0.399577
O	-2.603505	-0.202769	-0.232522
C	-0.248239	-0.695373	0.177652
O	-0.377504	-1.890161	0.085746
H	1.272296	0.534676	2.108494
H	2.202901	-0.862313	1.527048
H	2.738388	0.786415	1.151004
H	1.330655	-0.458394	-2.126444
H	2.80434	0.098331	-1.312275
H	2.14178	-1.510913	-0.95712
H	1.056119	2.291316	-0.724247
H	-1.502524	2.41327	-0.334828
H	-1.603381	0.36539	1.488288
H	-2.534323	-1.167894	-0.235997
