19

C	-2.43424	-0.019411	-0.071398
C	-1.061586	0.446795	-0.540562
O	-0.383844	-0.649237	-1.177596
C	0.924548	-0.877131	-0.623433
C	0.719443	-1.239835	0.857412
O	0.066262	-0.14841	1.50906
C	-0.154939	0.953069	0.606168
C	1.156044	1.384639	-0.005486
C	1.742476	0.391267	-0.674023
H	-2.33719	-0.73875	0.745165
H	-3.025936	0.832154	0.281799
H	-2.970767	-0.491796	-0.898414
H	-1.17839	1.255484	-1.277553
H	1.355033	-1.707077	-1.18523
H	0.079827	-2.128362	0.930649
H	1.677332	-1.44633	1.353433
H	-0.648257	1.729636	1.192116
H	1.542026	2.391864	0.0991
H	2.696513	0.447993	-1.184851
