19

C	-2.835114	0.422214	-0.106651
O	-1.642313	0.064469	-0.778826
C	-0.523546	-0.055721	0.058457
C	-0.443159	-1.302539	0.927025
C	0.418433	-1.158693	-0.307697
O	1.788864	-0.9655	-0.111377
C	2.257788	0.347352	-0.387964
C	1.407511	1.42423	0.239439
C	0.114288	1.22217	0.478343
H	-2.781906	1.429274	0.330368
H	-3.632747	0.410079	-0.853078
H	-3.080061	-0.290594	0.693259
H	0.059705	-1.227807	1.884232
H	-1.276	-1.99605	0.878868
H	0.163902	-1.756482	-1.180469
H	3.277613	0.381998	0.008494
H	2.330396	0.516019	-1.476806
H	1.893344	2.363912	0.48647
H	-0.503866	1.983821	0.94457
