19

C	-1.738593	1.170136	-0.470731
C	-0.871647	-5.3e-05	-1.7e-05
C	-1.738652	-1.170204	0.470688
C	0.220339	0.409845	1.028129
O	0.880054	1.532337	0.369223
C	1.403946	0.553487	-0.524687
C	1.404062	-0.553337	0.524693
O	0.880324	-1.532296	-0.369181
C	0.220406	-0.409931	-1.028111
H	-2.398317	1.51248	0.333997
H	-1.134097	2.018648	-0.793465
H	-2.375407	0.8539	-1.304566
H	-2.375316	-0.853987	1.304646
H	-2.398531	-1.512375	-0.333984
H	-1.1342	-2.01881	0.793247
H	-0.040663	0.598537	2.06836
H	2.207346	0.873302	-1.185276
H	2.207536	-0.873	1.185265
H	-0.04054	-0.598681	-2.068345
