19

O	-2.888549	-0.17297	0.071784
C	-1.977013	0.60782	-0.037315
C	-0.529108	0.187866	-0.04205
C	-0.071623	-0.936386	-1.01849
C	1.003978	-1.264316	0.054401
C	-0.006606	-0.728884	1.110018
C	2.157839	-0.257493	-0.102891
C	1.632841	1.174287	0.147951
O	0.264416	1.348583	-0.226564
H	-2.138812	1.702599	-0.142512
H	-0.834252	-1.712991	-1.105989
H	0.261419	-0.605157	-2.005221
H	1.359191	-2.293076	0.140591
H	-0.772168	-1.465283	1.359833
H	0.36201	-0.25226	2.021067
H	2.962686	-0.463469	0.611635
H	2.58592	-0.351584	-1.107387
H	1.744021	1.420574	1.212863
H	2.201195	1.918374	-0.416376
