19

O	3.656893	-0.195487	0.310156
C	2.257918	-0.227988	0.53013
C	1.46352	0.363915	-0.650821
C	-0.020714	0.259312	-0.476503
C	-0.866999	1.249679	-0.16183
C	-2.247654	0.726401	0.040526
O	-2.341315	-0.239451	1.118171
C	-2.190092	-0.723221	-0.216252
C	-0.757283	-1.070689	-0.597985
H	3.93028	0.726966	0.282221
H	2.00511	-1.284614	0.663221
H	1.977042	0.292601	1.458007
H	1.744291	1.418492	-0.76769
H	1.783663	-0.159171	-1.561235
H	-0.59499	2.29077	-0.033334
H	-3.133766	1.336368	-0.104788
H	-3.025733	-1.299853	-0.60387
H	-0.341716	-1.843497	0.059566
H	-0.700985	-1.463005	-1.622299
