19

C	-2.406384	0.100145	-0.657921
C	-1.04619	-0.249353	-0.116597
C	-0.846	-0.72834	1.354811
C	0.55857	-0.146458	1.253144
C	1.056403	-0.40726	-0.206718
O	2.393967	-0.349294	-0.538631
C	-0.060256	-1.154598	-0.925859
C	0.177562	0.765256	0.114926
O	0.312499	2.1229	0.000444
H	-3.049692	-0.786841	-0.707058
H	-2.905806	0.840154	-0.023501
H	-2.341803	0.517246	-1.669198
H	-1.46999	-0.163439	2.054552
H	-0.961601	-1.802026	1.54522
H	1.288274	0.052567	2.028273
H	2.845715	-1.097927	-0.133644
H	-0.074118	-0.917902	-1.9946
H	-0.154597	-2.238289	-0.784369
H	0.569661	2.33125	-0.904893
