19

C	2.251992	-1.186373	0.043333
O	1.282749	-0.541664	-0.778661
C	0.105492	-0.2279	-0.093165
C	-0.790134	-1.349586	0.436469
C	-2.184388	-0.784091	0.252144
C	-2.175883	0.396354	-0.374445
C	-0.793183	0.863091	-0.660604
C	0.082531	1.129231	0.567281
O	1.217901	1.922785	0.432012
H	1.891823	-2.16005	0.399245
H	3.13677	-1.343602	-0.577495
H	2.518583	-0.567946	0.910094
H	-0.644902	-2.268786	-0.149646
H	-0.578949	-1.603327	1.482559
H	-3.069019	-1.305218	0.599027
H	-3.054243	0.98251	-0.619308
H	-0.539003	1.391833	-1.573293
H	-0.405237	1.276173	1.526533
H	1.76041	1.505098	-0.250604
