19

O	-2.149733	-1.393654	-0.112855
C	-1.077198	-0.620923	0.367192
C	-0.894559	0.727307	-0.452598
O	-1.381063	1.935753	0.063199
C	0.610435	0.480624	-0.324043
C	2.010663	0.138463	-0.922509
C	1.827176	-0.760429	0.377343
C	1.30034	0.507543	1.08157
C	0.363779	-1.027759	-0.132409
H	-2.193592	-2.205472	0.40304
H	-1.171505	-0.416813	1.438614
H	-1.243232	0.535024	-1.47819
H	-2.331802	1.966276	-0.08567
H	2.011599	-0.38713	-1.880708
H	2.795572	0.900073	-0.874829
H	2.559913	-1.476084	0.761879
H	0.680821	0.367745	1.966757
H	2.01813	1.317218	1.236295
H	0.276645	-1.606576	-1.057213
