19

C	2.216284	-0.656348	-0.214837
C	0.839806	-0.088866	0.025435
C	0.060758	-0.567707	1.29092
C	-1.323797	-0.599304	0.619578
O	-1.054058	-1.503974	-0.498505
C	-0.293511	-0.389699	-1.019304
C	-1.272776	0.610191	-0.375261
C	-0.447881	1.822315	0.033597
O	0.907188	1.34287	0.046262
H	2.649076	-0.236515	-1.127936
H	2.887281	-0.424126	0.61775
H	2.15822	-1.743656	-0.319546
H	0.338551	-1.569172	1.626294
H	0.170968	0.140351	2.115887
H	-2.206882	-0.862027	1.201651
H	-0.040635	-0.448038	-2.077296
H	-2.205198	0.789627	-0.90694
H	-0.521542	2.639673	-0.692487
H	-0.728188	2.21922	1.019795
