19

C	-2.631909	-0.597277	-0.028078
C	-1.285894	0.070262	0.032891
C	-1.104162	1.402153	0.044097
C	0.234401	2.086906	0.062816
C	1.377939	1.159824	-0.368606
C	1.256184	-0.180144	0.356343
O	2.292683	-1.057732	0.01632
C	-0.10033	-0.81476	0.05147
O	-0.166137	-2.016391	-0.147441
H	-2.783795	-1.252895	0.836126
H	-3.438457	0.139384	-0.055194
H	-2.705897	-1.236082	-0.913743
H	-1.980417	2.048863	0.039654
H	0.196921	2.979314	-0.572391
H	0.420463	2.463995	1.081055
H	1.330671	0.979172	-1.449057
H	2.35271	1.608085	-0.156087
H	1.258564	0.018439	1.447214
H	1.859487	-1.917084	-0.114208
