19

O	2.128364	-1.143134	-0.107966
C	0.723056	-1.028172	-0.019584
C	0.259262	0.008931	-1.081611
C	-1.275496	-0.049841	-1.288209
C	-1.98891	-0.522732	0.001403
C	-1.267848	-0.075732	1.29639
C	0.266488	-0.013545	1.080107
C	0.521866	1.061442	0.008798
O	0.816044	2.220201	0.021764
H	2.451162	-1.542592	0.70644
H	0.233713	-2.008883	-0.027862
H	0.820393	0.062883	-2.015496
H	-1.622568	0.944942	-1.588848
H	-1.515915	-0.72822	-2.113578
H	-3.02834	-0.181801	0.008506
H	-2.033066	-1.616441	-0.009793
H	-1.613513	0.91262	1.619413
H	-1.504423	-0.770322	2.109635
H	0.82679	0.029167	2.017428
