19

C	1.679462	-2.908479	0.0
C	0.549474	-1.892335	0.0
C	0.549474	-0.772936	1.085388
C	0.120692	0.229862	0.0
C	0.549474	-0.772936	-1.085388
C	0.389159	1.739638	0.0
C	-1.134273	1.853223	0.0
O	-1.959867	2.708375	0.0
O	-1.332974	0.496906	0.0
H	1.633851	-3.553387	0.884347
H	1.633851	-3.553387	-0.884347
H	2.656447	-2.410907	0.0
H	-0.418225	-2.403189	0.0
H	-0.123713	-0.875479	1.939099
H	1.560599	-0.557207	1.446889
H	-0.123713	-0.875479	-1.939099
H	1.560599	-0.557207	-1.446889
H	0.871129	2.143889	0.892538
H	0.871129	2.143889	-0.892538
