19

C	4.526644	-0.601497	-0.273415
C	3.182806	-0.11507	0.005794
C	2.076504	0.297022	0.243151
C	0.722945	0.767571	0.511158
C	-0.353928	-0.181379	-0.054303
C	-1.772925	0.33105	0.213468
O	-1.907674	1.592652	-0.425705
C	-2.781368	-0.661217	-0.356332
O	-3.250531	-1.585057	0.254427
H	4.995387	-0.037089	-1.087244
H	5.173643	-0.511587	0.606335
H	4.515479	-1.657001	-0.567455
H	0.573031	0.875586	1.594084
H	0.57294	1.763355	0.080542
H	-0.209733	-0.289743	-1.135199
H	-0.251808	-1.175395	0.391435
H	-1.938152	0.401063	1.298823
H	-2.725407	2.003564	-0.128278
H	-3.043808	-0.452394	-1.419934
