19

C	2.098693	0.586781	-0.074433
C	1.130908	-0.128903	0.863898
C	0.508878	-1.510739	0.659475
C	-0.522478	-1.189707	-0.458343
O	0.207085	-0.29302	-1.272524
C	0.630626	0.677708	-0.319201
C	-0.503976	1.639948	-0.102799
C	-1.606002	0.74649	0.53726
O	-1.716066	-0.565698	-0.030696
H	2.628993	1.430305	0.357001
H	2.658806	0.02304	-0.813154
H	1.046006	0.312009	1.851026
H	1.20558	-2.276411	0.302432
H	0.036068	-1.879281	1.573432
H	-0.839725	-2.048847	-1.054129
H	-0.25887	2.455479	0.584955
H	-0.833807	2.07127	-1.052603
H	-1.391821	0.661142	1.612497
H	-2.599278	1.191572	0.429169
