19

C	0.114725	2.151907	0.277885
C	0.101351	0.824232	-0.464423
C	1.179235	-0.229491	-0.087229
C	2.573677	-0.354475	-0.606553
O	0.923032	-0.592186	1.280876
C	0.150235	-1.233741	0.248374
C	-0.955349	-0.25178	-0.094211
C	-2.327518	-0.158772	0.394582
O	-2.03168	-0.57572	-0.952586
H	0.966369	2.768642	-0.029175
H	-0.795699	2.725462	0.074836
H	0.18266	1.98281	1.355776
H	0.072186	0.968311	-1.55062
H	3.194643	0.479626	-0.260771
H	3.028587	-1.284214	-0.254892
H	2.58159	-0.348947	-1.701134
H	0.154365	-2.317045	0.202113
H	-2.727054	-0.933974	1.046656
H	-2.806601	0.815298	0.480345
