19

O	2.756665	-1.135613	0.07628
C	1.51598	-0.94909	-0.583703
C	0.46409	-0.282905	0.30804
C	0.877904	1.143702	0.735376
O	0.19715	2.025441	-0.147342
C	-1.09793	1.484375	-0.296179
C	-0.873575	-0.044399	-0.471309
C	-1.993324	-0.858935	-0.030798
C	-2.925461	-1.518683	0.345862
H	2.62703	-1.785361	0.774831
H	1.729687	-0.297791	-1.439251
H	1.123219	-1.897639	-0.981702
H	0.285077	-0.91605	1.182676
H	0.579475	1.340717	1.776898
H	1.9521	1.315026	0.639627
H	-1.715887	1.668939	0.596617
H	-1.574328	1.952477	-1.160032
H	-0.69243	-0.240608	-1.535575
H	-3.750563	-2.102723	0.670682
