19

C	3.876948	-0.041706	-0.032707
C	2.445852	-0.188369	0.193967
C	1.267171	-0.355055	0.395706
C	-0.145854	-0.456576	0.60077
C	-1.077746	-0.835347	-0.541399
O	-2.113388	-1.702497	-0.188429
C	-1.054149	0.594099	-0.059061
C	-2.216035	1.163519	0.714132
O	-0.437091	1.529979	-0.892591
H	4.108502	-0.009801	-1.103068
H	4.265366	0.877799	0.419075
H	4.430595	-0.882745	0.399165
H	-0.476627	-0.806638	1.574493
H	-0.604981	-1.016754	-1.506397
H	-2.874186	-1.497315	-0.743195
H	-2.914467	1.653722	0.027031
H	-2.749921	0.37548	1.249772
H	-1.873002	1.913973	1.432928
H	0.515438	1.489034	-0.730095
