19

C	2.394913	0.359941	-0.27827
C	1.008282	-0.147733	-0.046512
O	0.691074	-1.459037	-0.525106
C	0.432892	-1.175507	0.852502
C	-0.927904	-0.446417	0.931707
C	-1.901095	-0.694929	-0.240975
O	-1.282549	0.349014	-1.036703
C	-0.344679	0.660018	0.013226
C	-0.262839	2.125759	0.347387
H	2.526281	0.65639	-1.32503
H	2.60939	1.230974	0.348318
H	3.125788	-0.421642	-0.053357
H	0.900109	-1.822482	1.587355
H	-1.321965	-0.232885	1.92399
H	-1.834359	-1.672943	-0.724964
H	-2.946852	-0.451847	-0.019867
H	0.136129	2.687744	-0.5046
H	-1.254414	2.522598	0.581837
H	0.394272	2.297484	1.206408
