19

C	2.350298	-1.112438	0.009394
C	0.829564	-1.160439	0.009256
C	0.024744	-0.239832	-0.942754
C	-1.221759	-0.256444	-0.004729
O	-2.1955	-1.229608	-0.093513
C	-1.375319	1.278963	-0.008547
C	0.14596	1.002626	-0.004588
O	1.176195	1.91936	-0.094377
C	0.025236	-0.240367	0.959952
H	2.755557	-1.617731	0.893844
H	2.756055	-1.622726	-0.871641
H	2.717044	-0.083048	0.004445
H	0.467993	-2.195121	0.006482
H	-0.005695	-0.21026	-2.033358
H	-2.747422	-1.182703	0.694566
H	-1.790143	1.731402	-0.914815
H	-1.797893	1.738592	0.893148
H	1.13061	2.503916	0.670146
H	-0.00401	-0.212748	2.052404
