19

C	-3.02059	0.257589	-0.157738
C	-2.555798	-0.956459	0.59935
C	-1.596778	-0.223346	-0.31175
C	-0.482695	0.560867	0.286724
O	0.275609	1.415569	-0.601549
C	0.9229	0.304861	-0.022678
C	2.189644	0.36828	0.825272
O	2.725303	-0.773568	0.118789
C	1.605777	-0.821105	-0.794486
H	-3.694363	0.120158	-0.995563
H	-3.184254	1.173635	0.400042
H	-2.407968	-0.862376	1.670254
H	-2.906262	-1.932892	0.285467
H	-1.346245	-0.70642	-1.251152
H	-0.711587	1.027439	1.248106
H	2.786497	1.276183	0.668903
H	2.082437	0.178652	1.900032
H	1.889869	-0.555129	-1.820746
H	1.10981	-1.799376	-0.791434
