19

C	1.746843	-1.518672	-0.562195
C	0.745874	-0.556379	0.061264
C	-0.413315	-1.220493	0.876426
C	-1.429942	-0.462956	0.006692
O	-2.617832	-0.332857	0.039698
C	-0.302285	0.131023	-0.894764
O	-0.135833	1.526541	-0.83751
C	0.411253	1.819628	0.448842
C	1.388957	0.668825	0.746607
H	2.390085	-1.972121	0.200327
H	1.240732	-2.33314	-1.092215
H	2.393362	-1.001909	-1.279592
H	-0.481075	-2.307018	0.756282
H	-0.466464	-0.992338	1.945856
H	-0.339077	-0.18174	-1.94246
H	0.886278	2.801362	0.391157
H	-0.388833	1.868809	1.203619
H	2.35845	0.879461	0.284121
H	1.551545	0.523307	1.818162
