19

O	-1.637637	-1.850279	0.021613
C	-1.371771	-0.543426	0.439672
C	-1.208201	0.553323	-0.580707
O	-1.708532	1.809143	-0.219201
C	-0.004795	-0.012638	0.140039
C	0.936866	0.687555	1.139414
C	2.09866	-0.123829	0.539393
C	2.212284	0.119219	-0.939544
C	1.141591	-0.813658	-0.441344
H	-2.550189	-1.884055	-0.285104
H	-1.820915	-0.242969	1.387968
H	-1.338889	0.267298	-1.626206
H	-1.078779	2.476449	-0.511425
H	1.021035	1.778122	1.065995
H	0.713336	0.424357	2.176381
H	2.909196	-0.559879	1.109705
H	1.946958	1.085683	-1.363981
H	3.056774	-0.360492	-1.4246
H	1.083019	-1.854706	-0.729567
