19

O	4.729205	-0.351358	-0.155196
C	3.369077	-0.226747	-0.523183
C	2.481765	0.182655	0.670426
C	1.084916	0.356117	0.292914
C	-0.054898	0.494357	-0.071351
C	-1.447769	0.645176	-0.472975
C	-2.415134	-0.178691	0.409656
C	-3.86092	0.079241	0.049406
O	-4.678024	-0.773293	-0.180759
H	4.814966	-1.121325	0.415897
H	3.329392	0.552928	-1.289207
H	2.976885	-1.150016	-0.973468
H	2.563902	-0.583479	1.454403
H	2.885316	1.107645	1.099608
H	-1.733874	1.704941	-0.43157
H	-1.566593	0.340282	-1.520659
H	-2.211284	-1.249183	0.334063
H	-2.273843	0.122007	1.456663
H	-4.13653	1.160751	0.012554
