19

O	2.004806	-0.503259	-0.93456
C	1.693459	-0.481135	0.465528
C	0.199846	-0.374809	0.581617
C	-0.406176	0.653746	1.52044
C	-0.463395	0.885091	0.033683
O	0.284609	1.933641	-0.496738
C	-1.703323	0.413297	-0.655141
C	-1.835107	-0.911791	-0.569236
C	-0.671793	-1.558247	0.157305
H	2.952711	-0.638549	-1.031315
H	2.063398	-1.394047	0.956916
H	2.171633	0.380418	0.950492
H	-1.324411	0.41284	2.045972
H	0.295757	1.269574	2.073759
H	0.837368	1.546932	-1.188934
H	-2.391599	1.101051	-1.132595
H	-2.677574	-1.485217	-0.939432
H	-1.007324	-2.15688	1.014479
H	-0.11634	-2.236098	-0.504127
