19

C	-2.423534	-1.046301	0.497439
C	-1.05985	-0.6042	0.073476
C	-0.102812	-1.332605	-0.509377
C	1.13537	-0.539027	-0.796894
O	2.212535	-0.746774	0.165631
C	1.929092	0.512151	0.806576
C	0.828325	0.863835	-0.217634
C	-0.635009	0.841957	0.260718
O	-1.506936	1.660674	-0.519072
H	-2.558526	-0.920191	1.579502
H	-3.188001	-0.430913	0.011126
H	-2.60544	-2.095163	0.250677
H	-0.184911	-2.38986	-0.738792
H	1.514311	-0.641314	-1.819369
H	1.579946	0.384563	1.841089
H	2.806053	1.170339	0.808662
H	1.037141	1.726034	-0.851217
H	-0.710673	1.133374	1.322179
H	-1.364189	2.577059	-0.262152
