19

C	-2.657714	-0.339166	-0.47067
C	-1.255627	-0.003799	-0.04105
C	-0.626579	1.337407	-0.433661
C	0.889161	1.124858	-0.407847
C	1.591617	0.757558	0.88805
C	1.177666	-0.319164	-0.080936
O	2.109229	-1.045044	-0.821494
C	-0.168534	-0.974636	0.17922
O	-0.892365	-0.425896	1.290335
H	-3.37421	0.376664	-0.052207
H	-2.750104	-0.30727	-1.561304
H	-2.935165	-1.337389	-0.123059
H	-0.946744	1.601528	-1.44789
H	-0.962441	2.139992	0.232557
H	1.491166	1.627064	-1.156263
H	2.652296	0.984483	0.922385
H	1.058819	0.837596	1.827532
H	2.600626	-1.607321	-0.212597
H	-0.269094	-2.046175	0.021482
