19

C	1.888711	-1.210466	0.282398
C	0.557269	-0.604315	-0.032981
O	0.116345	-0.697322	-1.400879
C	-0.883387	0.294772	-1.019465
C	-1.816277	-0.543067	-0.12979
C	-0.722571	-0.793208	0.928636
C	-0.468546	0.646193	1.463208
C	0.112392	0.885361	0.073387
O	0.882985	2.001564	-0.195478
H	1.876448	-2.288577	0.089647
H	2.676939	-0.76246	-0.330706
H	2.142007	-1.056862	1.335634
H	-1.27443	0.874577	-1.85567
H	-2.676776	-0.001168	0.272129
H	-2.154661	-1.435286	-0.661037
H	-0.815535	-1.64166	1.602928
H	-1.334397	1.226565	1.793278
H	0.320079	0.689503	2.219176
H	1.240136	1.909812	-1.086889
