19

O	-2.208683	-1.310733	-0.117383
C	-1.588396	-0.19752	0.468628
C	-1.778611	1.195727	-0.181182
O	-0.350309	1.377912	-0.307936
C	-0.104505	0.055138	0.188127
C	1.064623	-0.347468	1.004083
C	2.325217	0.370075	0.502302
C	2.085411	-0.212084	-0.92884
C	0.829337	-0.93206	-0.421976
H	-1.952397	-1.337707	-1.046237
H	-1.846408	-0.235024	1.529432
H	-2.282273	1.157751	-1.156604
H	-2.238251	1.974622	0.436205
H	0.947418	-0.819981	1.973946
H	2.312939	1.45916	0.597074
H	3.239647	-0.01589	0.956796
H	1.916558	0.514144	-1.728676
H	2.875469	-0.900532	-1.2344
H	0.500793	-1.924825	-0.711837
