19

C	2.50469	-0.475307	0.186158
C	1.040563	-0.278268	-0.095833
O	0.34024	-1.434592	-0.612516
C	-0.0548	-0.903419	0.665408
C	-1.35146	-0.099864	0.527571
O	-2.347462	-0.848452	-0.142443
C	-0.921198	1.143346	-0.258139
C	0.122504	2.039972	0.357561
C	0.528658	1.012814	-0.671875
H	2.879375	0.316297	0.842846
H	2.682709	-1.443715	0.65966
H	3.081973	-0.439319	-0.744062
H	0.109796	-1.565208	1.512081
H	-1.771958	0.157175	1.505855
H	-1.894877	-1.267508	-0.886962
H	-1.66063	1.576677	-0.920998
H	0.126693	3.081724	0.056757
H	0.406667	1.875923	1.393544
H	0.884298	1.336664	-1.644153
