19

C	2.668968	0.985895	-0.008815
C	1.983471	-0.36394	-0.244156
C	0.506859	-0.342938	0.074587
O	0.219814	-0.106393	1.42995
C	-0.480874	-1.266354	-0.572576
O	-1.475601	-1.820213	0.205179
C	-0.50124	0.239444	-0.933781
C	-1.522884	1.094627	-0.423693
C	-2.340594	1.820094	0.084105
H	2.241279	1.765031	-0.648778
H	2.548955	1.300042	1.031755
H	3.739626	0.923896	-0.223132
H	2.111845	-0.680886	-1.286003
H	2.45439	-1.135725	0.377479
H	-0.275459	0.72254	1.497793
H	-0.144674	-1.929441	-1.364571
H	-1.313093	-1.49942	1.105556
H	-0.101977	0.497333	-1.910509
H	-3.096833	2.448505	0.485355
