19

C	3.520353	-0.462862	-0.000116
C	2.116063	-0.079939	-0.000535
C	0.955371	0.241271	-0.000828
C	-0.472018	0.633223	3.2e-05
C	-0.657678	2.141222	0.000527
O	-1.140299	0.081677	-1.1243
C	-1.479128	-1.254968	-0.776071
C	-1.477366	-1.255641	0.776164
O	-1.139181	0.081063	1.124688
H	3.769311	-1.057727	0.885445
H	3.76913	-1.060283	-0.884005
H	4.170377	0.418877	-0.001462
H	-0.19176	2.571331	0.889295
H	-0.192823	2.571768	-0.888585
H	-1.726391	2.365012	0.001216
H	-2.457843	-1.477445	-1.209009
H	-0.743222	-1.963774	-1.175705
H	-2.454803	-1.479555	1.211209
H	-0.739713	-1.963957	1.173456
