19

C	2.656614	0.516128	-0.092912
C	1.207328	0.364851	-0.497643
O	0.839049	-1.015019	-0.846528
C	-0.30914	-0.926408	0.013287
C	0.058449	-0.784431	1.461996
C	0.075727	0.419573	0.544697
O	-1.009107	1.285208	0.520501
C	-1.949815	0.760172	-0.446151
C	-1.726591	-0.787585	-0.501691
H	2.893445	-0.101528	0.777408
H	3.314969	0.217428	-0.914862
H	2.866939	1.56221	0.153389
H	0.968046	1.026561	-1.340451
H	-0.766622	-0.790469	2.165232
H	0.984421	-1.222219	1.821198
H	-2.952983	1.052085	-0.123201
H	-1.759568	1.210813	-1.429881
H	-2.445558	-1.317169	0.129156
H	-1.818065	-1.173027	-1.519263
