19

C	0.156855	2.455661	-0.221756
O	-0.256039	1.454497	0.700233
C	-0.577321	0.259959	0.105707
C	-1.886738	-0.028222	-0.645991
C	-1.88177	-1.457808	-0.004249
C	-0.584102	-1.102442	0.731435
C	0.487961	-0.758803	-0.314537
C	1.852673	-0.550481	0.214395
O	2.863097	-0.836833	-0.384125
H	-0.630607	2.676391	-0.954664
H	0.364437	3.354848	0.360969
H	1.065357	2.151811	-0.758741
H	-2.707678	0.586196	-0.269469
H	-1.857335	0.035307	-1.73717
H	-2.725829	-1.61386	0.670138
H	-1.817225	-2.302925	-0.69501
H	-0.297924	-1.409243	1.730086
H	0.451606	-1.226515	-1.295972
H	1.893389	-0.100501	1.230953
