19

O	1.140747	-1.462529	1.13319
C	1.0085	-0.856394	0.106216
C	1.827334	0.333515	-0.350456
C	0.848351	1.511454	-0.622118
C	-0.125689	1.702526	0.517641
C	-1.306788	1.097033	0.68564
C	-1.980752	0.104147	-0.239588
C	-1.303256	-1.276969	-0.264517
O	0.015865	-1.103208	-0.800036
H	2.546365	0.570075	0.436666
H	2.379962	0.091348	-1.264835
H	1.429499	2.425615	-0.780469
H	0.311945	1.29732	-1.550107
H	0.210776	2.365229	1.312922
H	-1.848969	1.317578	1.602513
H	-3.026493	-0.027107	0.059304
H	-1.991184	0.480882	-1.26968
H	-1.240244	-1.729047	0.728927
H	-1.830752	-1.957877	-0.937384
