19

C	-1.207135	-1.309487	-1.184292
C	-1.104701	-0.647384	0.188766
O	-2.175373	0.247605	0.418665
C	0.272871	0.080388	0.425634
C	0.328481	0.585779	1.890117
C	1.399176	-0.941131	0.255692
O	2.316934	-0.868996	-0.513741
C	0.395374	1.19626	-0.50724
C	0.428123	2.131853	-1.261933
H	-2.19632	-1.760122	-1.296241
H	-1.064698	-0.573007	-1.98157
H	-0.45275	-2.092475	-1.313338
H	-1.19972	-1.409307	0.971656
H	-2.088744	0.963098	-0.224929
H	-0.563544	1.178641	2.097216
H	0.348056	-0.261524	2.583989
H	1.217996	1.196931	2.057964
H	1.295864	-1.801423	0.958255
H	0.498239	2.952644	-1.932854
