19

O	2.820054	0.372736	-0.653353
C	2.097465	-0.179869	0.44006
C	0.618557	-0.217487	0.197641
C	-0.102485	-1.130751	-0.801408
C	-1.389585	-0.976473	0.071899
O	-2.237723	0.053681	-0.411699
C	-1.476709	1.265559	-0.366898
C	-0.289434	0.964589	0.542711
C	-0.521604	-0.363037	1.199886
H	2.458207	1.249169	-0.821707
H	2.48746	-1.197284	0.559257
H	2.30808	0.361301	1.377734
H	-0.183141	-0.817161	-1.8467
H	0.298674	-2.147963	-0.759324
H	-1.993045	-1.862637	0.261274
H	-1.171078	1.560003	-1.380506
H	-2.109279	2.061903	0.042521
H	0.153914	1.76772	1.121379
H	-0.525669	-0.561566	2.263142
