19

O	-3.430351	-0.000398	0.212161
C	-2.39162	0.000323	-0.394746
C	-1.012323	0.00026	0.232276
C	-0.24255	1.266056	-0.196636
C	1.191611	1.2819	0.367799
C	1.946894	-0.000146	0.043709
O	3.059215	-0.000277	-0.427795
C	1.191263	-1.282018	0.367684
C	-0.242891	-1.265743	-0.196749
H	-2.379093	0.001018	-1.511696
H	-1.152564	0.000188	1.319611
H	-0.200295	1.307515	-1.293354
H	-0.777687	2.163586	0.130461
H	1.764696	2.131537	-0.010556
H	1.143466	1.371359	1.462317
H	1.764121	-2.131775	-0.010745
H	1.143088	-1.37156	1.462194
H	-0.200651	-1.307129	-1.29347
H	-0.778296	-2.163128	0.130295
