19

C	2.763461	0.020413	-0.224682
O	1.622661	0.747643	0.208603
C	0.463794	0.015363	0.193238
C	-0.018083	-1.058944	1.17208
C	-1.385735	-0.860053	0.46639
O	-1.177811	-1.387785	-0.875769
C	-0.355525	-0.242918	-1.09915
C	-0.932287	0.586611	0.008466
C	-1.507415	1.960022	0.113709
H	2.627493	-0.365893	-1.243689
H	3.607147	0.713461	-0.20811
H	2.980274	-0.823758	0.443719
H	0.403362	-2.068155	1.132593
H	-0.032461	-0.679794	2.19741
H	-2.33043	-1.158121	0.91636
H	-0.028744	0.004392	-2.101245
H	-2.476015	2.030983	-0.392823
H	-1.648537	2.25814	1.158797
H	-0.830154	2.686919	-0.345992
