19

O	-2.875917	0.009504	-0.427446
C	-1.502587	0.257441	-0.315131
C	-0.851694	0.055068	1.021864
C	-0.579422	-0.918048	-0.156783
C	0.917763	-0.516142	-0.139986
O	1.834059	-1.568267	-0.081031
C	1.403106	0.663555	-1.02234
C	1.105484	1.658603	0.149749
C	0.63738	0.469183	1.042625
H	-3.107832	-0.71623	0.161859
H	-1.249858	1.095295	-0.956557
H	-1.470073	-0.08166	1.90382
H	-0.93893	-1.925986	-0.346055
H	1.502132	-2.223996	0.54271
H	2.468052	0.56621	-1.242787
H	0.865024	0.824405	-1.959395
H	2.000265	2.154911	0.530621
H	0.352522	2.423915	-0.051234
H	1.133376	0.335276	2.004849
