19

C	-2.077929	-0.273504	1.300645
C	-1.361988	-0.110197	-0.047177
O	-2.252273	-0.422228	-1.119805
C	-0.824622	1.32609	-0.28335
C	0.681753	1.288922	0.066215
C	1.014089	-0.183261	-0.030968
C	2.382282	-0.710075	-0.028735
O	3.375131	-0.02253	0.065361
C	-0.090333	-0.937549	-0.097206
H	-2.349573	-1.321232	1.479254
H	-1.441119	0.048232	2.130248
H	-2.992809	0.327142	1.307174
H	-2.724648	-1.231382	-0.895873
H	-0.959813	1.544751	-1.345805
H	-1.382078	2.075097	0.284132
H	1.298176	1.895108	-0.603277
H	0.881027	1.657264	1.080228
H	2.454634	-1.816904	-0.124137
H	-0.106173	-2.022564	-0.15294
