19

C	-2.246368	-0.572809	-0.585751
C	-0.912779	-0.420709	0.105296
C	-0.353295	-1.540722	0.918985
C	0.346494	-1.13701	-0.377882
C	1.49593	-0.204088	-0.200857
O	2.576951	-0.282101	-0.72841
C	1.034095	0.926026	0.73636
C	-0.496758	0.982909	0.563154
O	-0.862042	1.872176	-0.486072
H	-2.310447	0.081192	-1.457611
H	-2.400521	-1.606591	-0.909416
H	-3.066401	-0.310038	0.092782
H	0.141884	-1.351641	1.865833
H	-0.887088	-2.484162	0.883232
H	0.357965	-1.827684	-1.211481
H	1.326935	0.689963	1.765797
H	1.521589	1.865864	0.468332
H	-1.013547	1.260574	1.494576
H	-0.593549	2.760336	-0.232017
