19

C	-1.478351	-1.624048	-6e-06
C	-0.90559	-0.215906	-6e-06
O	-2.008427	0.654929	0.000104
C	0.246052	0.024641	-1.056555
C	0.625729	1.498998	-0.788639
C	0.625627	1.498954	0.78882
C	0.2461	0.024544	1.056586
C	1.133088	-0.6575	-6e-06
O	2.044864	-1.43014	-9.4e-05
H	-2.104203	-1.77151	0.884748
H	-2.103418	-1.771883	-0.885249
H	-0.691065	-2.382376	0.00052
H	-1.706735	1.567964	-0.001635
H	0.179945	-0.318951	-2.086805
H	1.601955	1.755399	-1.205839
H	-0.102623	2.194432	-1.217542
H	1.601751	1.755525	1.206148
H	-0.103018	2.194122	1.217601
H	0.17998	-0.319136	2.086804
