19

O	-1.707097	2.2118	-0.379663
C	-1.485111	1.255716	0.315681
C	-0.778192	7.8e-05	-0.157855
C	-1.485896	-1.255061	0.315742
O	-1.709148	-2.210802	-0.379663
C	0.655203	-0.000251	0.428185
C	1.65138	1.087885	-0.065229
C	2.758928	-0.000594	-0.086499
C	1.650973	-1.088663	-0.065459
H	-1.762132	1.252838	1.395923
H	-0.733753	5.9e-05	-1.249915
H	-1.761956	-1.2523	1.39624
H	0.602638	-0.000363	1.523453
H	1.395143	1.433103	-1.070795
H	1.799955	1.96188	0.572519
H	3.444701	-0.000633	-0.935907
H	3.347818	-0.000802	0.834697
H	1.394612	-1.433559	-1.071106
H	1.799222	-1.962849	0.572105
