19

O	2.943984	-0.331775	0.388301
C	2.081412	0.140983	-0.64456
C	0.671684	0.300103	-0.176956
C	-0.151854	1.350953	-0.301404
C	-1.505459	0.896682	0.221063
C	-1.083422	-0.018964	1.380351
C	-0.144673	-0.827763	0.446233
C	-1.192058	-1.218076	-0.639742
O	-2.038786	-0.066094	-0.737255
H	2.902564	0.306903	1.107906
H	2.44495	1.085844	-1.075669
H	2.143483	-0.619441	-1.432958
H	0.050735	2.291258	-0.799766
H	-2.269376	1.652964	0.391958
H	-0.547819	0.498313	2.177758
H	-1.916944	-0.597418	1.788449
H	0.419481	-1.658791	0.866156
H	-0.733838	-1.434685	-1.612002
H	-1.788601	-2.085502	-0.330113
