19

C	-1.53356	1.691185	1.8e-05
C	-0.922981	0.326134	8e-06
O	-1.821621	-0.857475	-5e-06
C	-0.456854	-1.412869	-1.9e-05
C	-0.047847	-0.38702	1.082464
C	1.417181	0.020385	1.182545
O	1.862183	0.664468	8e-06
C	1.41718	0.020415	-1.182544
C	-0.047849	-0.386986	-1.082473
H	-2.156402	1.834716	0.888246
H	-0.744153	2.448821	-0.000528
H	-2.157242	1.834294	-0.887689
H	-0.35248	-2.498518	-3.5e-05
H	-0.539999	-0.532807	2.046609
H	1.566165	0.743404	1.990859
H	2.040911	-0.862027	1.410066
H	1.566173	0.74345	-1.990842
H	2.040905	-0.861997	-1.410084
H	-0.54	-0.532752	-2.046623
