19

C	-2.144854	-1.181598	-0.863211
C	-1.168842	-0.357009	-0.00427
O	-1.210106	-0.809509	1.354425
C	0.283589	-0.59053	-0.470138
C	1.324202	0.18338	0.35218
C	2.730628	-0.272434	0.048271
O	3.63779	0.44567	-0.285033
C	-1.527772	1.068508	-0.075052
C	-1.861888	2.222704	-0.117819
H	-2.095975	-0.881207	-1.913625
H	-1.893757	-2.242552	-0.779955
H	-3.172071	-1.036297	-0.51637
H	-2.029985	-0.492049	1.747435
H	0.470899	-1.668101	-0.387272
H	0.359994	-0.325181	-1.529291
H	1.253671	1.260609	0.184804
H	1.131022	-0.016748	1.414422
H	2.886909	-1.372609	0.160777
H	-2.14256	3.246728	-0.15582
