19

C	-0.410293	2.035037	-0.287513
C	0.322946	0.777086	0.11249
C	1.71757	0.854551	0.692293
C	1.497912	0.199986	-0.648248
C	1.333301	-1.304196	-0.611097
O	0.424596	-1.563099	0.465761
C	-0.452587	-0.452335	0.608449
C	-1.748515	-0.701558	-0.160503
O	-2.743928	-0.034817	-0.045105
H	-1.131433	1.856485	-1.089683
H	-0.96396	2.455406	0.558511
H	0.300559	2.792069	-0.631813
H	2.185263	1.833146	0.702042
H	1.971213	0.219034	1.53529
H	1.867951	0.666252	-1.553883
H	0.92967	-1.671493	-1.567644
H	2.252288	-1.857431	-0.390925
H	-0.714803	-0.373004	1.671446
H	-1.704087	-1.588561	-0.833822
