19

C	1.021339	1.813805	1.1e-05
C	0.901413	0.289789	-6e-06
O	2.232709	-0.187159	-3.6e-05
C	0.022469	-0.561973	0.981831
O	0.193224	-1.665988	3e-05
C	0.022449	-0.562008	-0.98181
C	-1.453729	-0.213302	-0.763445
C	-1.874659	1.017613	-3.8e-05
C	-1.45371	-0.213247	0.763464
H	2.082692	2.0665	0.000186
H	0.56798	2.264514	-0.886321
H	0.567688	2.264521	0.886187
H	2.154146	-1.151942	-3.1e-05
H	0.365872	-0.819157	1.984284
H	0.365855	-0.819222	-1.984253
H	-2.189836	-0.763975	-1.336848
H	-1.298785	1.927969	-9.8e-05
H	-2.946682	1.195765	-2.5e-05
H	-2.18982	-0.763863	1.336919
