19

O	1.517076	-1.673523	-0.257171
C	1.445169	-0.265272	-0.282204
C	1.166994	0.41194	1.112521
C	-0.157201	1.136721	0.789095
C	0.16469	1.765884	-0.603934
C	0.227039	0.277897	-1.066321
C	-0.87662	0.056175	-0.024192
C	-2.276109	-0.314423	-0.161485
O	-1.320449	-1.202785	0.464667
H	0.653566	-2.004011	0.02223
H	2.39042	0.070775	-0.716765
H	1.057654	-0.3508	1.887637
H	1.956157	1.105291	1.415886
H	-0.651419	1.694879	1.58336
H	-0.674942	2.312387	-1.038018
H	1.084104	2.351025	-0.682979
H	0.129426	-0.028033	-2.10684
H	-3.020925	0.098232	0.517015
H	-2.660827	-0.652809	-1.122362
