19

C	-2.44837	-1.153702	-0.135382
C	-1.759307	0.172236	0.093317
O	-2.334692	1.234942	0.040502
C	-0.26857	0.135402	0.437076
C	0.559192	1.286474	-0.189574
C	1.888022	0.625198	-0.51005
C	2.562178	-0.162782	0.602304
C	1.646615	-0.849706	-0.376738
O	0.316722	-1.096052	0.006011
H	-1.996924	-1.658953	-0.994378
H	-2.293343	-1.816813	0.722436
H	-3.513203	-0.989166	-0.302581
H	-0.212551	0.195506	1.536609
H	0.079693	1.64462	-1.105204
H	0.634912	2.135116	0.493925
H	2.494046	1.035633	-1.308716
H	3.625358	-0.351235	0.49909
H	2.23169	-0.02463	1.626686
H	2.015518	-1.599904	-1.065692
