19

C	1.83653	-0.135531	0.173533
C	1.21309	1.277954	0.275714
C	-0.305102	1.353307	0.171585
O	-0.750589	0.93336	-1.16107
C	-1.374657	-0.222719	-0.609803
C	-0.371755	-1.348943	-0.18706
C	1.065538	-1.154793	-0.688065
O	-0.513312	-0.958173	1.219268
C	-1.191944	0.237313	0.833304
H	2.854929	-0.041889	-0.218185
H	1.92303	-0.556714	1.177389
H	1.53383	1.752395	1.211116
H	1.591019	1.912416	-0.535334
H	-0.657501	2.371721	0.372668
H	-2.300666	-0.508954	-1.109891
H	-0.731862	-2.372543	-0.329361
H	1.600364	-2.109871	-0.655142
H	1.027762	-0.837508	-1.7361
H	-1.959888	0.549915	1.542005
