19

C	-3.087521	0.009654	-0.016429
C	-1.633837	0.016941	0.412432
C	-0.65507	0.749698	-0.472551
C	-0.662102	-0.770263	-0.434783
C	0.817925	-0.762895	0.058612
O	1.736196	-1.722749	-0.314167
C	1.032307	0.012657	1.329323
C	0.825451	0.756139	0.023123
O	1.761562	1.622467	-0.506787
H	-3.179194	-0.016306	-1.107516
H	-3.610555	-0.865382	0.383809
H	-3.606989	0.905342	0.340674
H	-1.503821	0.042774	1.489513
H	-0.972137	1.385344	-1.290869
H	-0.998865	-1.448088	-1.211221
H	1.821424	-1.700023	-1.27436
H	0.349223	0.023358	2.173008
H	2.083095	0.002087	1.607298
H	1.812828	2.40157	0.058945
