19

O	2.564898	-0.098684	-0.472636
C	1.465576	-0.03357	0.021987
C	0.696176	-1.296734	0.425803
C	-0.834585	-1.134502	0.360722
C	-1.298486	-0.697502	-1.038018
O	-1.119397	0.726004	-1.080809
C	-0.744957	1.190687	0.225279
C	-1.251647	0.101444	1.176202
C	0.783526	1.308501	0.29882
H	1.055946	-2.117829	-0.200921
H	0.992135	-1.534608	1.457508
H	-1.327798	-2.05475	0.683161
H	-0.718111	-1.157341	-1.846315
H	-2.358792	-0.936235	-1.199079
H	-1.21802	2.164773	0.378195
H	-0.798112	0.145488	2.169868
H	-2.338752	0.157275	1.285734
H	1.164953	2.034668	-0.423305
H	1.08893	1.650071	1.297941
