19

C	-2.887518	-0.74013	0.072606
O	-2.028886	0.309726	-0.31227
C	-0.873017	0.421627	0.489067
C	-0.075721	1.636853	0.051483
C	1.197211	1.339967	-0.202284
C	1.446425	-0.133492	-0.024772
C	2.801033	-0.673996	0.333232
O	0.661684	-0.915735	-0.959647
C	0.152721	-0.717182	0.362247
H	-3.192172	-0.650165	1.128024
H	-3.777409	-0.674872	-0.557753
H	-2.426152	-1.727597	-0.072235
H	-1.168761	0.506896	1.552101
H	-0.55255	2.601531	-0.07363
H	1.963969	2.033105	-0.528386
H	3.165907	-0.224412	1.262834
H	2.761187	-1.758719	0.456758
H	3.526797	-0.44745	-0.455755
H	0.070001	-1.612131	0.9739
