19

C	1.416194	2.113852	0.009541
C	1.102522	0.652606	0.01024
C	-0.077621	0.024296	-0.007813
C	0.145756	-1.468328	-0.019411
O	1.557856	-1.642775	0.022783
C	2.202236	-0.377577	0.032883
C	-1.423794	0.619138	-0.045453
C	-2.583613	0.031114	0.654826
O	-2.438449	-0.120095	-0.752883
H	2.086401	2.368459	-0.820946
H	0.52148	2.734498	-0.077025
H	1.936505	2.405424	0.930831
H	-0.312297	-1.973613	0.845754
H	-0.270688	-1.935147	-0.923487
H	2.839275	-0.285063	0.928674
H	2.868653	-0.282149	-0.84133
H	-1.461449	1.692048	-0.230221
H	-2.46048	-0.877414	1.241419
H	-3.392724	0.685308	0.978245
