19

C	-1.654405	1.603901	-0.508825
C	-0.575332	1.148097	0.466614
C	0.891322	1.523236	0.043969
C	1.233667	0.025976	-0.03655
C	2.240658	-0.645977	-0.91408
O	0.966309	-0.527122	1.241767
C	-0.169386	-0.332393	0.371399
C	-0.943219	-1.538312	0.032472
O	-2.105103	-1.535342	-0.300584
H	-1.744072	2.695085	-0.488717
H	-1.414498	1.305248	-1.535116
H	-2.622894	1.166207	-0.258377
H	-0.829714	1.435081	1.490782
H	0.920929	2.021881	-0.928434
H	1.49141	2.085582	0.763483
H	3.253694	-0.362209	-0.606066
H	2.15736	-1.733031	-0.845351
H	2.110491	-0.344104	-1.957531
H	-0.352176	-2.477192	0.105861
