19

C	-1.640285	1.358348	-0.603344
C	-1.271624	0.024587	0.002867
O	-1.943276	-1.081487	-0.537579
C	-0.836083	-0.073948	1.432957
C	0.178558	-0.290398	0.321636
C	0.967049	-1.549794	-0.069318
C	2.180924	-0.64295	-0.461912
C	1.360537	0.578094	-0.000705
O	1.579108	1.756219	0.086128
H	-0.980264	2.148393	-0.238068
H	-1.55905	1.314121	-1.693703
H	-2.674202	1.622818	-0.349188
H	-2.871235	-1.017401	-0.284828
H	-0.73182	0.836744	2.014874
H	-1.133701	-0.959194	1.985299
H	1.172037	-2.23006	0.760153
H	0.526312	-2.115113	-0.891449
H	3.104078	-0.798435	0.102999
H	2.426732	-0.623363	-1.52757
