19

O	1.018504	1.933499	-0.088376
C	1.619995	0.667044	0.014119
C	1.096364	-0.443167	-0.931007
C	1.803834	-1.436869	0.039011
C	1.046972	-0.437085	0.961977
C	-0.166766	-0.61101	-0.015738
C	-1.346877	0.322034	-0.055584
C	-2.5832	-0.039874	0.654743
O	-2.490092	-0.200979	-0.757013
H	1.355147	2.483907	0.625393
H	2.713923	0.764069	0.042879
H	1.128906	-0.447559	-2.020815
H	1.430247	-2.461715	0.03193
H	2.896011	-1.405313	0.066489
H	1.024393	-0.436013	2.053514
H	-0.563918	-1.632644	-0.025061
H	-1.154449	1.371192	-0.24434
H	-2.620526	-0.965418	1.229864
H	-3.258962	0.74288	0.998139
