19

C	3.711506	0.442891	0.877774
C	3.186163	-0.101732	-0.46291
C	1.731277	-0.183607	-0.522836
C	0.528316	-0.250444	-0.552286
C	-0.917517	-0.318596	-0.595873
O	-1.481443	-1.4987	0.043816
C	-2.463629	-0.706307	0.742264
C	-1.748182	0.601612	0.334908
O	-2.47393	1.58026	-0.359324
H	3.393955	-0.195163	1.706801
H	4.804824	0.482151	0.871177
H	3.331752	1.451363	1.063057
H	3.546185	0.530706	-1.284607
H	3.607837	-1.098503	-0.645765
H	-1.281559	-0.228729	-1.629346
H	-3.4637	-0.790674	0.296228
H	-2.508009	-0.955583	1.808138
H	-1.140892	1.028595	1.140268
H	-2.815013	2.220459	0.271854
