19

C	2.695293	-0.385708	0.253687
C	1.755191	0.750841	-0.155955
C	0.297284	0.367978	-0.110521
O	0.02464	-0.742319	-1.022243
C	-1.145065	-1.360502	-0.487437
C	-1.472377	-0.425633	0.723268
O	-0.125963	-0.147636	1.138656
C	-1.902299	0.90184	0.114884
C	-0.786901	1.406326	-0.413132
H	3.738587	-0.064669	0.186566
H	2.497281	-0.700455	1.281417
H	2.555437	-1.251266	-0.397902
H	1.890188	1.621413	0.49557
H	1.974399	1.081547	-1.177525
H	-1.944083	-1.396314	-1.235258
H	-0.907782	-2.37388	-0.145902
H	-2.062353	-0.856631	1.529328
H	-2.921405	1.251122	0.023128
H	-0.656443	2.277912	-1.039493
