19

C	-3.249892	-0.144842	-0.259193
C	-1.785423	0.012916	-0.01437
C	-0.964993	1.310721	0.096458
C	0.291733	0.51406	-0.416046
C	1.513062	0.457442	0.508315
C	2.599986	-0.439611	-0.03487
O	3.735538	-0.099359	-0.249015
C	-0.606174	-0.738466	-0.48191
O	-1.130916	-0.945357	0.83695
H	-3.826879	0.199568	0.606527
H	-3.564077	0.443501	-1.127259
H	-3.49672	-1.194801	-0.436869
H	-1.278833	2.089164	-0.602976
H	-0.898892	1.728958	1.104244
H	0.577352	0.848497	-1.418098
H	1.932816	1.454141	0.672524
H	1.182623	0.05086	1.473578
H	2.272542	-1.486066	-0.241706
H	-0.526705	-1.60941	-1.123745
