19

C	2.275003	0.055514	-0.740738
C	0.991387	-0.22538	0.040078
O	1.278952	-0.997367	1.209616
C	-0.117982	-0.921084	-0.784865
C	-1.438822	-0.458935	-0.145902
O	-2.47148	-1.079751	-0.136121
C	-1.188892	0.860326	0.509925
C	-0.46075	1.883581	-0.356712
C	0.318124	1.034677	0.588964
H	2.711319	-0.876415	-1.120072
H	2.088185	0.708151	-1.598787
H	3.011905	0.536788	-0.091054
H	1.708163	-1.812642	0.92861
H	-0.099964	-0.622343	-1.839587
H	-0.040455	-2.009853	-0.753224
H	-1.877844	1.201729	1.271207
H	-0.394524	1.714697	-1.426406
H	-0.614869	2.921199	-0.08365
H	0.7799	1.483439	1.460504
