19

O	2.762387	-1.300113	-0.155555
C	2.051995	-0.353953	-0.00629
C	2.107347	1.14341	-0.332832
O	0.77126	1.292403	0.186474
C	0.648123	-0.105746	0.565942
C	-0.517323	-0.836436	-0.091198
C	-1.86644	-0.40123	0.441433
C	-2.507597	0.867512	-0.060572
C	-3.090803	-0.471491	-0.436589
H	2.856198	1.712865	0.233075
H	2.188711	1.396385	-1.397503
H	0.607205	-0.213442	1.660189
H	-0.470626	-0.671185	-1.174499
H	-0.367112	-1.911665	0.073845
H	-2.021094	-0.629586	1.493459
H	-3.048592	1.485341	0.647298
H	-1.973872	1.427537	-0.819718
H	-4.029747	-0.771804	0.015084
H	-2.962051	-0.815162	-1.457933
