19

C	-3.240404	-0.481183	0.759129
C	-2.43392	-0.483012	-0.551109
C	-1.018071	-0.05294	-0.376713
C	0.181535	-0.667374	-0.553272
C	1.199706	0.289544	-0.205074
C	2.681349	0.081398	-0.223206
O	3.091323	-1.035944	0.559446
C	0.527245	1.410863	0.167006
O	-0.816559	1.227124	0.064791
H	-4.276077	-0.782768	0.576426
H	-2.80518	-1.17285	1.486824
H	-3.248936	0.516632	1.206051
H	-2.426985	-1.486018	-0.989337
H	-2.927892	0.173541	-1.279374
H	0.33858	-1.680951	-0.88862
H	3.029755	-0.142061	-1.237893
H	3.18857	1.005509	0.095463
H	2.699636	-0.928766	1.432663
H	0.845772	2.384512	0.503332
