19

C	-2.625804	-1.393914	2e-05
O	-2.04972	-0.103401	-0.000105
C	-0.690475	-0.053569	1e-06
C	0.018141	1.111926	-7.9e-05
C	-0.384446	2.539082	5.7e-05
O	1.357781	0.809927	-3.6e-05
C	1.489413	-0.542641	0.000106
C	2.873347	-1.085194	-4.4e-05
C	0.26063	-1.130603	5.7e-05
H	-2.340188	-1.965553	0.893462
H	-3.707991	-1.25071	-0.000533
H	-2.33937	-1.966099	-0.892802
H	-0.012775	3.071908	-0.883784
H	-1.475281	2.599154	0.000355
H	-0.012286	3.07177	0.883773
H	2.844494	-2.177147	0.000195
H	3.434958	-0.758069	-0.882899
H	3.435349	-0.757678	0.882414
H	0.063758	-2.190303	0.000228
