19

C	-1.209103	-0.942934	1.365498
C	-0.66084	-0.524642	0.005939
C	-0.76434	-1.631215	-1.043045
C	-1.176116	0.837843	-0.533437
O	-0.792176	1.854543	0.396711
C	0.177159	1.416319	-0.571845
C	0.76082	0.13161	-0.009873
C	1.954822	-0.090494	0.7994
O	1.882852	-0.516234	-0.575643
H	-0.635763	-1.78106	1.777085
H	-1.160568	-0.110929	2.072184
H	-2.2528	-1.267197	1.283752
H	-1.803789	-1.958555	-1.153225
H	-0.404182	-1.295156	-2.020217
H	-0.161775	-2.495958	-0.75105
H	-2.039396	1.030194	-1.161255
H	0.627933	2.158703	-1.219903
H	2.640179	0.731995	0.997953
H	1.970344	-0.897436	1.530305
