19

C	-3.125647	1e-06	0.204716
C	-1.635396	-3e-06	0.457005
C	-0.700376	0.752927	-0.456566
O	0.436226	1.334535	0.127858
C	1.627777	0.751806	-0.330511
C	2.448296	-1e-06	0.684609
C	1.627777	-0.751805	-0.330513
O	0.436226	-1.334534	0.127859
C	-0.700375	-0.752928	-0.45657
H	-3.348398	-1.3e-05	-0.867672
H	-3.599581	-0.886371	0.639511
H	-3.599572	0.886391	0.639486
H	-1.32023	-8e-06	1.496469
H	-1.106056	1.301119	-1.305736
H	2.123976	1.301126	-1.127992
H	3.527672	0.0	0.579794
H	2.072314	-2e-06	1.701117
H	2.123973	-1.301124	-1.127995
H	-1.106049	-1.30112	-1.305743
