19

O	1.474487	-1.304344	-0.626874
C	0.498083	-0.73394	0.196562
C	0.91754	0.010923	1.454108
C	0.453936	0.770457	0.222108
O	1.363941	1.522692	-0.512578
C	-1.039879	1.008255	-0.057316
C	-1.250907	-0.006701	-1.239273
C	-0.981061	-1.051557	-0.095823
C	-1.752975	-0.05902	0.817569
H	1.850608	-2.070246	-0.182198
H	0.354164	-0.040977	2.378212
H	1.993434	0.05929	1.593181
H	1.907009	0.89413	-1.00836
H	-1.378612	2.042653	-0.102384
H	-2.278063	-0.029775	-1.612756
H	-0.540628	0.030364	-2.067923
H	-1.265066	-2.101568	-0.177516
H	-2.824985	-0.087126	0.611561
H	-1.593702	-0.074031	1.896191
