19

C	-2.625126	-0.172591	-0.44548
C	-1.18933	-0.128583	-0.050226
O	-0.189098	-0.499905	-1.019345
C	0.758127	-0.577076	0.102989
C	1.894761	-1.522378	-0.117974
C	-0.428848	-0.637492	1.126318
C	-0.533198	0.87802	0.901505
C	0.925698	0.935765	0.442878
O	1.309719	1.782793	-0.599129
H	-3.259644	0.082907	0.408187
H	-2.828753	0.545397	-1.247243
H	-2.903752	-1.170293	-0.798284
H	2.530788	-1.567663	0.771323
H	1.532192	-2.529156	-0.343346
H	2.505646	-1.177062	-0.95875
H	-0.672043	-1.270076	1.96803
H	-1.098879	1.603495	1.47248
H	1.608144	1.090651	1.282814
H	0.808831	1.4747	-1.367476
