19

C	-2.670518	0.293972	-0.594196
C	-1.676695	-0.445784	0.285436
C	-0.637152	-1.401101	-0.372958
C	0.463148	-0.825179	0.587413
C	-0.496296	0.340739	0.914334
O	-0.079143	1.42025	0.068673
C	1.29713	1.30473	-0.235214
C	1.664841	-0.175817	-0.069219
O	2.706839	-0.685989	-0.386732
H	-3.325784	-0.411883	-1.1158
H	-3.303954	0.96435	-0.003349
H	-2.147881	0.898098	-1.339848
H	-2.199752	-0.979876	1.086895
H	-0.820741	-2.473078	-0.286341
H	-0.444817	-1.167006	-1.423603
H	0.748953	-1.500789	1.39304
H	-0.598768	0.689165	1.948993
H	1.479571	1.65537	-1.255855
H	1.924862	1.902205	0.446756
