19

C	0.130244	1.93892	0.924288
C	-0.112267	0.664154	0.121951
C	-1.467894	0.708348	-0.545789
O	-2.08829	-0.249121	-0.952408
C	0.925362	0.270816	-0.972908
C	2.253884	-0.099841	-0.374492
C	1.132949	-1.098002	-0.341838
C	0.182273	-0.743823	0.818529
O	-0.895061	-1.590969	1.058454
H	-0.559242	2.005097	1.773572
H	1.147965	1.97045	1.32043
H	-0.011878	2.833215	0.306152
H	-1.879988	1.73262	-0.69011
H	0.827737	0.535532	-2.01945
H	3.038638	-0.289305	-1.099894
H	2.606996	0.358532	0.546141
H	1.188696	-2.072793	-0.809924
H	0.696625	-0.623175	1.779115
H	-1.456049	-1.572893	0.267173
