19

C	1.934978	0.756148	0.149642
O	2.060093	-0.590744	-0.394969
C	0.656127	-0.639072	-0.724267
C	-0.320378	-1.262501	0.270822
C	-1.737261	-0.918072	-0.253383
C	-2.010231	0.613206	-0.11061
C	-0.735234	1.513666	-0.225143
C	0.419301	0.618232	0.129485
O	0.026578	-0.246351	1.251948
H	2.392752	0.853396	1.137954
H	2.3472	1.502958	-0.542557
H	0.475783	-0.740196	-1.79768
H	-0.199192	-2.28158	0.648168
H	-1.832521	-1.24873	-1.295029
H	-2.492562	-1.465275	0.317963
H	-2.765535	0.928704	-0.835683
H	-2.438783	0.778036	0.879607
H	-0.600229	1.908546	-1.238415
H	-0.824098	2.371259	0.450567
