19

C	-2.160633	-0.474221	1.020162
C	-1.069583	-0.258636	-0.029248
O	-1.352951	-1.205857	-1.059837
C	-1.047725	1.177348	-0.547596
C	0.06433	1.833656	-0.209235
C	1.022622	0.950016	0.515312
C	1.528661	-0.223505	-0.316533
O	2.667133	-0.914998	0.092967
C	0.336281	-0.404619	0.574258
H	-2.013186	0.194307	1.872212
H	-3.146082	-0.281014	0.586899
H	-2.137862	-1.510857	1.370637
H	-0.636021	-1.162053	-1.701559
H	-1.87294	1.569602	-1.131298
H	0.291681	2.863417	-0.463311
H	1.649759	1.316792	1.319716
H	1.386425	-0.150287	-1.397397
H	3.438972	-0.411339	-0.186792
H	0.482076	-1.061962	1.423129
