19

C	0.652893	1.964717	-0.700499
C	0.373742	0.604863	-0.093363
O	0.187163	0.686288	1.316481
C	1.340667	-0.593485	-0.396068
O	2.309651	-0.863672	0.573788
C	0.104603	-1.526294	-0.516476
C	-0.788125	-0.257586	-0.701375
C	-2.096889	-0.211916	-0.088337
C	-3.188704	-0.182489	0.414424
H	1.583192	2.38375	-0.295666
H	0.771435	1.8941	-1.785762
H	-0.164877	2.660601	-0.485927
H	0.765362	1.381073	1.647911
H	1.861134	-0.470906	-1.350737
H	1.854103	-0.760663	1.420791
H	0.092189	-2.266811	-1.317899
H	-0.106767	-2.017946	0.435544
H	-0.87048	-0.014794	-1.766649
H	-4.148929	-0.156184	0.866409
