19

C	-2.313988	-1.158917	0.582652
C	-1.316078	-0.418089	-0.314552
C	-1.587146	1.067026	-0.459161
C	-0.487917	1.810113	-0.352697
C	0.745553	0.963423	-0.173321
O	1.627462	1.493952	0.799689
C	0.144629	-0.408634	0.218445
C	1.01241	-1.579252	-0.159842
O	2.193135	-1.484963	-0.399198
H	-2.052282	-2.217707	0.683706
H	-2.335596	-0.718816	1.585388
H	-3.326688	-1.107547	0.169594
H	-1.342529	-0.886813	-1.311147
H	-2.584911	1.444208	-0.65879
H	-0.428508	2.888037	-0.446338
H	1.276535	0.873408	-1.134776
H	2.443074	0.984796	0.732082
H	0.093015	-0.413442	1.318598
H	0.508334	-2.572057	-0.191398
