19

O	-1.828719	0.865626	0.773673
C	-1.066983	0.67455	-0.436713
C	0.060576	1.668872	-0.53421
C	1.270462	1.413113	-0.026891
C	1.612435	0.116429	0.603302
C	2.028444	-1.057546	-0.264729
C	0.659976	-1.034019	0.364445
C	-0.58351	-0.790759	-0.505634
O	-1.642058	-1.650995	-0.137423
H	-1.195319	1.056269	1.474853
H	-1.795228	0.830615	-1.238467
H	-0.156179	2.630946	-0.988739
H	2.050234	2.170803	-0.069836
H	2.106231	0.182788	1.569591
H	2.089545	-0.888047	-1.335586
H	2.771934	-1.74211	0.128831
H	0.480697	-1.723205	1.18266
H	-0.341465	-1.0153	-1.551711
H	-2.13263	-1.163645	0.540982
