19

C	-1.242688	1.956025	0.262779
O	-0.45476	0.986093	0.935737
C	-0.215647	-0.21812	0.242815
C	0.63494	-1.161186	1.127413
O	1.747582	-1.111728	0.222836
C	1.052282	-0.243031	-0.700309
C	1.802255	1.050294	-0.939172
C	-1.41846	-0.806066	-0.335368
C	-2.395679	-1.304985	-0.827512
H	-2.25232	1.582129	0.056593
H	-1.304486	2.81502	0.93413
H	-0.785638	2.275885	-0.682431
H	0.86277	-0.719719	2.103858
H	0.236668	-2.173372	1.251515
H	0.855461	-0.765967	-1.644337
H	1.863851	1.641745	-0.022841
H	2.817786	0.812963	-1.271366
H	1.321149	1.647797	-1.720262
H	-3.259831	-1.74898	-1.25731
