19

C	2.987633	-0.017363	0.059442
C	1.539645	0.174204	-0.343695
O	0.862291	-1.10819	-0.534147
C	-0.085326	-0.8131	0.496244
C	0.548074	0.563496	0.785324
C	-0.783552	1.221268	0.34811
O	-1.049548	0.813015	-0.997327
C	-1.406281	-0.090948	0.053205
C	-2.807315	-0.604408	0.10416
H	3.068214	-0.597596	0.984114
H	3.531625	-0.550361	-0.726487
H	3.471143	0.954053	0.212934
H	1.453018	0.784987	-1.247514
H	-0.207029	-1.610764	1.234744
H	0.945805	0.839715	1.760512
H	-1.216303	2.161045	0.674069
H	-3.023267	-1.051917	1.079716
H	-3.518958	0.206089	-0.075567
H	-2.963457	-1.372746	-0.66148
