19

O	2.415122	-0.7151	-0.472865
C	1.077268	-0.292852	-0.612907
C	0.885578	1.071137	0.086139
C	0.609413	0.282878	1.398568
C	0.119619	-0.883576	0.487038
C	-1.298367	-0.639706	0.016229
O	-2.09221	-1.527485	-0.188189
C	-1.640377	0.839637	-0.194752
C	-0.398289	1.739006	-0.428227
H	2.465592	-1.643155	-0.725057
H	0.742663	-0.375699	-1.65703
H	1.742696	1.746854	0.053968
H	1.535259	0.010759	1.904564
H	-0.095088	0.703616	2.120565
H	0.259349	-1.923072	0.788241
H	-2.37464	0.913228	-1.000087
H	-2.163945	1.152706	0.717637
H	-0.284921	1.953194	-1.497108
H	-0.539338	2.703105	0.070207
