19

C	3.269152	-0.473479	0.113582
C	1.910405	0.187522	-0.033179
O	1.768549	1.386554	0.058599
C	0.732798	-0.7434	-0.292877
C	-0.546545	-0.003391	-0.626713
C	-1.903541	-0.738745	-0.437816
C	-2.619975	0.627608	-0.339667
C	-1.343917	0.654879	0.532039
O	-1.700114	-0.701233	1.03111
H	3.230702	-1.278091	0.85592
H	3.565262	-0.933143	-0.836657
H	4.01456	0.267463	0.404729
H	1.006837	-1.447885	-1.0898
H	0.573316	-1.351315	0.606819
H	-0.456246	0.605353	-1.530332
H	-2.252101	-1.677959	-0.870031
H	-2.652446	1.261976	-1.228939
H	-3.557366	0.614619	0.216482
H	-1.010264	1.39045	1.261926
