19

C	-2.833441	-0.250839	0.374435
C	-1.479083	-0.955216	0.475459
C	-0.415339	-0.471257	-0.555293
C	0.750074	-1.416901	-0.594595
C	1.926073	-1.105622	-0.066495
C	2.186769	0.226132	0.55556
O	1.190939	1.222627	0.302574
C	-0.012427	0.969949	-0.265461
O	-0.737075	1.900931	-0.500057
H	-3.522212	-0.642103	1.129707
H	-2.734451	0.827003	0.516046
H	-3.286877	-0.414186	-0.609261
H	-1.062855	-0.845539	1.484556
H	-1.610253	-2.033124	0.319738
H	-0.907036	-0.439618	-1.535296
H	0.578155	-2.39293	-1.040729
H	2.756014	-1.805925	-0.058387
H	2.29289	0.13322	1.646217
H	3.129963	0.647266	0.185615
