19

C	-3.152316	-0.427856	-0.288858
C	-1.94456	0.513329	-0.252844
C	-0.745526	-0.071744	0.491658
C	0.121306	-1.108014	-0.240764
C	1.250913	-1.531684	0.638693
C	1.434768	-0.205868	-0.034677
O	2.541053	0.034797	-0.798111
C	0.504932	0.849093	0.432065
O	0.607026	2.048798	0.343777
H	-2.913068	-1.371071	-0.791775
H	-3.493696	-0.671228	0.723221
H	-3.990788	0.029812	-0.82273
H	-1.641983	0.775674	-1.274458
H	-2.216416	1.457663	0.231456
H	-1.038636	-0.388951	1.500191
H	-0.157378	-1.624696	-1.149466
H	1.113154	-1.602445	1.715843
H	1.913214	-2.286461	0.224052
H	2.423862	0.909418	-1.193302
