19

C	-2.87149	-0.516971	0.343139
C	-1.370424	-0.200245	0.344995
C	-1.133673	1.202673	-0.268118
O	0.202717	1.499781	-0.604735
C	1.182321	1.129785	0.341732
C	1.710371	-0.292691	0.106016
O	2.875639	-0.556555	0.322362
C	0.776078	-1.310239	-0.432567
C	-0.558865	-1.277861	-0.332908
H	-3.250672	-0.608462	-0.680738
H	-3.075241	-1.45745	0.863339
H	-3.441632	0.272202	0.843084
H	-1.044907	-0.153886	1.392948
H	-1.694527	1.295308	-1.204287
H	-1.530664	1.951169	0.43748
H	2.031471	1.808148	0.224629
H	0.823143	1.229359	1.378556
H	1.271483	-2.170137	-0.874506
H	-1.121218	-2.118767	-0.73526
