19

C	3.063188	-0.714913	0.801861
C	2.358291	-0.482817	-0.547394
C	0.955665	0.026906	-0.410178
C	-0.180683	-0.565661	-0.772529
C	-1.357476	0.3205	-0.454107
O	-0.792789	1.487135	0.130288
C	0.630463	1.385698	0.161803
C	-2.286703	-0.359629	0.552815
O	-3.198057	-1.081527	0.248553
H	2.512933	-1.439201	1.409992
H	4.074009	-1.101674	0.643408
H	3.148742	0.211256	1.378527
H	2.946313	0.235679	-1.135109
H	2.346198	-1.416557	-1.119061
H	-0.293936	-1.540156	-1.229501
H	-1.95113	0.575925	-1.344759
H	1.079393	2.197042	-0.433958
H	0.983059	1.512061	1.19568
H	-2.015281	-0.139748	1.610437
