19

C	-2.668916	0.077208	-0.40965
C	-1.350949	-0.674869	-0.276118
C	-0.174117	-0.016929	-0.994702
C	1.109301	-0.397486	-0.205848
O	2.314041	-0.355897	-0.874501
C	0.687827	-1.297674	0.95138
C	-0.571444	-0.382706	1.042428
C	0.246417	0.742454	0.251418
O	0.603856	2.037707	0.514956
H	-3.422181	-0.322518	0.278352
H	-2.541283	1.142542	-0.18256
H	-3.070294	0.002056	-1.426097
H	-1.502826	-1.742443	-0.481326
H	-0.073665	0.28209	-2.031127
H	2.964534	0.056889	-0.295339
H	0.518216	-2.363924	0.763781
H	1.346776	-1.172468	1.816722
H	-1.097283	-0.253619	1.986932
H	-0.133881	2.616938	0.29357
