19

C	1.488626	1.690529	0.421964
C	0.47528	0.734119	-0.125582
O	0.792407	1.3e-05	-1.317482
C	0.475408	-0.734057	-0.125512
C	1.488915	-1.69032	0.422
C	-1.063665	-0.972401	0.021828
C	-1.405532	3e-05	1.187632
C	-1.063829	0.972265	0.02163
O	-1.629399	-0.000215	-0.893042
H	1.537764	2.595801	-0.19345
H	1.226307	1.994513	1.441389
H	2.485282	1.241869	0.438674
H	1.538873	-2.595136	-0.194019
H	2.485358	-1.241218	0.439682
H	1.226087	-1.995141	1.44104
H	-1.466315	-1.9803	-0.078153
H	-2.466711	-1.3e-05	1.441448
H	-0.775287	0.000177	2.082388
H	-1.466637	1.980081	-0.078557
