19

C	-0.615002	1.88531	0.620178
C	-0.413519	0.416555	0.217413
C	0.131082	-0.464573	1.366605
O	0.662258	-1.614522	0.739481
C	1.195975	-1.239456	-0.529167
C	0.733141	0.197028	-0.831999
O	1.840284	1.056508	-0.612255
C	-1.654435	-0.145081	-0.313837
C	-2.6738	-0.589625	-0.77124
H	-1.381035	1.965587	1.39621
H	0.315949	2.305274	1.008946
H	-0.95006	2.48466	-0.232415
H	0.908577	0.095366	1.910106
H	-0.641474	-0.782789	2.070404
H	2.292415	-1.260475	-0.515431
H	0.834184	-1.954056	-1.27492
H	0.353597	0.301868	-1.854801
H	1.601802	1.939892	-0.910412
H	-3.574953	-0.992159	-1.163209
