19

O	2.538441	-0.72634	-0.449458
C	1.170391	-0.582072	-0.634275
C	0.199263	-0.86756	0.500541
C	-1.182769	-1.443983	0.200461
C	-2.299182	-0.382379	0.254818
C	-1.911962	0.893842	-0.456663
C	-0.649238	1.315851	-0.548807
C	0.469989	0.561658	0.059884
O	1.383738	1.33246	0.811467
H	2.803492	-0.008985	0.14333
H	0.852222	-0.846459	-1.640017
H	0.674961	-1.161385	1.43191
H	-1.181424	-1.888826	-0.802293
H	-1.405616	-2.25882	0.896819
H	-3.218387	-0.788998	-0.181429
H	-2.548258	-0.149395	1.300956
H	-2.710757	1.483901	-0.898857
H	-0.396293	2.243258	-1.056461
H	0.973675	1.554601	1.654219
