19

C	0.306101	2.12014	0.204812
C	0.333869	0.633032	-0.03202
O	1.332949	0.224085	-1.012713
C	1.924334	-0.716785	-0.07985
C	0.833982	-0.428974	0.973259
C	-0.517662	-1.163326	0.872845
C	-0.872787	-1.501776	-0.564349
C	-1.038374	-0.096327	-0.120105
O	-2.263743	0.525412	-0.263452
H	-0.359645	2.375329	1.037643
H	1.3066	2.491511	0.441626
H	-0.053758	2.640672	-0.689019
H	1.975454	-1.733078	-0.486666
H	2.930693	-0.397005	0.216398
H	1.149431	-0.157506	1.980414
H	-1.014268	-1.659814	1.697568
H	-0.122935	-1.771683	-1.300163
H	-1.815329	-2.031336	-0.660297
H	-2.366681	1.171024	0.444261
