19

C	1.674293	1.100945	-0.316337
C	1.854976	-0.176806	0.532133
C	0.539782	-0.271049	1.333516
C	-0.434111	-0.018186	0.147948
C	-1.564296	1.028868	0.214691
O	-2.537454	0.069352	-0.24093
C	-1.575106	-1.004696	-0.162232
C	0.634371	0.151986	-0.949424
O	1.533375	-0.964443	-0.661537
H	1.340099	2.023316	0.16691
H	2.520506	1.277941	-0.980311
H	2.792765	-0.455578	1.011487
H	0.407995	-1.26149	1.7762
H	0.461773	0.480035	2.125492
H	-1.792584	1.400276	1.223637
H	-1.477103	1.886546	-0.465957
H	-1.811386	-1.705348	0.650253
H	-1.493799	-1.563848	-1.102451
H	0.30491	0.212504	-1.987292
