19

C	2.330133	-0.147547	-0.387152
C	0.924161	-0.685789	-0.225555
O	0.630652	-1.803069	-0.591209
C	-0.135616	0.237809	0.442248
C	0.372278	0.698286	1.831314
C	-1.46442	-0.548585	0.628472
O	-2.033219	-1.001551	-0.570817
C	-0.336433	1.39314	-0.431829
C	-0.486478	2.349094	-1.145606
H	2.869044	-0.758309	-1.112323
H	2.319786	0.899904	-0.697099
H	2.854789	-0.204096	0.573463
H	-0.395326	1.306366	2.31754
H	0.583105	-0.166384	2.468961
H	1.276469	1.304218	1.749448
H	-1.263969	-1.375406	1.327404
H	-2.193444	0.11952	1.097582
H	-1.41201	-1.653827	-0.919342
H	-0.639658	3.186523	-1.780784
