19

C	-3.771452	-0.02956	-0.054848
O	-2.444361	0.360226	-0.319948
C	-1.498755	-0.598578	0.10119
C	-0.12763	-0.124764	-0.311351
C	0.601693	0.817346	0.576315
C	1.900894	1.267262	-0.109572
C	2.331748	-0.227218	-0.105302
O	3.371775	-0.776478	-0.331943
C	1.038662	-0.671413	0.511611
H	-3.950523	-0.166532	1.023565
H	-4.424475	0.765248	-0.422577
H	-4.031377	-0.969853	-0.566508
H	-1.54268	-0.734735	1.196093
H	-1.71625	-1.579191	-0.355136
H	-0.006399	-0.025247	-1.388233
H	0.129647	1.313237	1.413789
H	1.801637	1.771768	-1.075053
H	2.573148	1.844943	0.531361
H	0.896995	-1.488069	1.209566
