19

C	-1.228469	1.743323	-0.004093
C	-1.097583	0.226347	-0.006473
O	-2.384123	-0.356366	-0.09256
C	-0.06968	-0.476538	0.964987
C	-0.154432	-1.71851	0.013128
C	-0.074989	-0.482092	-0.950545
C	1.018803	0.019127	0.004135
C	2.067736	1.026986	-0.00427
O	2.365605	-0.389043	-0.00109
H	-1.801156	2.071629	0.87293
H	-0.265286	2.254643	0.02363
H	-1.773084	2.06949	-0.895416
H	-2.921591	0.008706	0.617812
H	-0.060605	-0.463019	2.05569
H	0.716354	-2.374069	0.012976
H	-1.09512	-2.2619	0.01538
H	-0.073993	-0.478173	-2.04052
H	2.322344	1.549131	-0.926065
H	2.331971	1.554966	0.911563
