19

C	-2.272861	-0.414158	0.400533
C	-2.015115	0.772294	-0.522465
C	-0.878952	-0.037329	0.010025
O	-0.183722	-0.90175	-0.895358
C	1.168128	-0.870872	-0.453785
C	1.047867	-0.822126	1.07262
C	0.200633	0.465768	0.961293
C	1.160531	1.329314	0.118533
O	1.758889	0.373272	-0.78551
H	-2.607686	-0.21924	1.414333
H	-2.678833	-1.312849	-0.050424
H	-2.257499	0.648109	-1.571768
H	-2.173947	1.773229	-0.133499
H	1.719473	-1.670687	-0.943875
H	0.506286	-1.671851	1.490648
H	2.007543	-0.685137	1.574449
H	-0.163168	0.927297	1.878245
H	0.640743	2.101962	-0.457232
H	1.94436	1.799644	0.725537
