19

C	2.250324	-1.756493	-0.292375
C	1.540709	-0.578432	0.356634
C	2.034953	0.863399	0.011641
C	0.561742	1.261903	-0.130465
O	-0.034844	2.299885	-0.072907
C	0.109422	-0.2072	-0.168306
C	-1.137	-0.610819	0.624275
C	-2.408156	-0.059169	0.003291
O	-3.341667	-0.740228	-0.336962
H	3.277011	-1.852259	0.075977
H	1.732114	-2.698069	-0.081789
H	2.295819	-1.635542	-1.380762
H	1.506046	-0.706422	1.443761
H	2.622186	1.413136	0.750589
H	2.554323	0.906457	-0.952809
H	0.014269	-0.524509	-1.216208
H	-1.228528	-1.699132	0.693795
H	-1.059022	-0.203983	1.642409
H	-2.414105	1.043929	-0.124176
