19

C	2.306656	0.072858	0.268925
C	1.274819	1.216943	0.358374
C	-0.007525	0.497324	0.036852
O	-1.139172	1.241925	-0.297091
C	-2.229958	0.323614	-0.387515
C	-1.907075	-0.857525	0.562521
C	-0.386731	-0.833419	0.657984
C	0.37465	-0.781947	-0.659306
O	1.769421	-0.928516	-0.608068
H	3.271133	0.389766	-0.136476
H	2.48325	-0.363223	1.261576
H	1.284146	1.6986	1.340235
H	1.449498	1.98509	-0.402573
H	-3.144548	0.860736	-0.124348
H	-2.328186	-0.032154	-1.422644
H	-2.331916	-0.685743	1.556677
H	-2.31642	-1.798429	0.182128
H	0.092831	-1.233941	1.544801
H	-0.050793	-1.155058	-1.585119
