19

C	1.946404	1.742253	0.247273
C	1.07953	0.514688	0.495855
C	1.653079	-0.814059	-0.030784
O	0.668095	-1.829743	0.190153
C	0.531512	-0.995019	-0.963319
C	-0.11055	0.347621	-0.532835
C	-1.573981	0.317325	-0.113759
C	-1.928254	-0.338525	1.205258
O	-2.418069	0.794807	-0.84035
H	2.832966	1.733147	0.890432
H	2.28797	1.784272	-0.792915
H	1.390326	2.662077	0.453603
H	0.786834	0.453442	1.547621
H	2.687543	-1.132788	-0.093615
H	0.462661	-1.487089	-1.926265
H	-0.021018	1.076882	-1.342059
H	-1.618905	0.3118	2.03285
H	-3.007499	-0.487005	1.260166
H	-1.387524	-1.280957	1.325627
