19

C	-0.224621	2.726673	0.202897
O	0.696108	1.743518	-0.229974
C	0.372976	0.456811	0.191395
C	1.362186	-0.625745	-0.269364
C	2.187052	-1.367821	0.758554
O	0.276718	-1.429352	-0.804961
C	-0.676976	-0.350842	-0.640859
C	-1.915692	-0.752482	-0.004388
C	-2.941375	-1.059031	0.543142
H	-0.291197	2.758751	1.300692
H	0.137978	3.689915	-0.161964
H	-1.232124	2.548568	-0.199327
H	0.155091	0.424207	1.268284
H	1.993792	-0.239846	-1.081511
H	2.957585	-0.708505	1.172451
H	1.555863	-1.731962	1.574486
H	2.684374	-2.227818	0.299682
H	-0.876639	0.146669	-1.600789
H	-3.848639	-1.338689	1.019216
