19

O	2.509648	-0.568989	-0.657648
C	1.633687	0.538991	-0.635264
C	0.403984	0.252685	0.239719
O	0.968318	-0.062456	1.521663
C	-0.560586	1.427028	0.286002
C	-1.729357	1.141168	-0.29094
C	-1.785406	-0.283139	-0.742346
C	-1.701469	-1.293271	0.387516
C	-0.45055	-0.874331	-0.350115
H	2.61455	-0.822319	0.268599
H	2.13347	1.443541	-0.254083
H	1.317549	0.731948	-1.664339
H	0.301721	-0.543843	2.022587
H	-0.288435	2.36158	0.762596
H	-2.570017	1.819839	-0.386218
H	-2.296417	-0.554236	-1.658766
H	-1.892159	-0.929376	1.393451
H	-2.060738	-2.299391	0.197804
H	0.054935	-1.61096	-0.961179
