19

O	2.603098	0.327208	0.114461
C	1.74845	-0.786552	-0.119086
C	0.34001	-0.296052	-0.050709
C	-0.379549	0.399763	1.175677
C	-1.478756	-0.695424	1.110997
C	-0.971396	-1.10145	-0.29273
O	-1.403288	-0.172789	-1.311181
C	-0.341415	0.753834	-0.976733
C	-0.692791	1.612276	0.258395
H	3.514311	0.024572	0.058782
H	1.936939	-1.235853	-1.108454
H	1.908145	-1.57679	0.633932
H	0.101129	0.593028	2.13389
H	-1.279608	-1.493546	1.834638
H	-2.525948	-0.390022	1.1874
H	-1.05204	-2.140049	-0.623424
H	0.091017	1.22072	-1.863787
H	0.056441	2.398548	0.393918
H	-1.696189	2.045669	0.292004
