19

O	-2.449857	-0.479226	-0.616945
C	-1.651713	-0.886802	0.497995
C	-0.206284	-0.687466	0.171224
C	0.727481	-1.631862	0.03878
C	2.100928	-1.072887	-0.24238
C	1.918131	0.456969	-0.06049
C	0.402816	0.669411	0.013279
C	-0.300964	1.820927	-0.573528
O	-0.096117	1.730803	0.842657
H	-3.360006	-0.40922	-0.312765
H	-1.896332	-0.282412	1.383909
H	-1.831574	-1.943543	0.744507
H	0.535788	-2.698011	0.103888
H	2.862849	-1.489651	0.426219
H	2.420663	-1.325703	-1.261818
H	2.356964	0.792076	0.884176
H	2.383743	1.037024	-0.86063
H	0.282038	2.593415	-1.075723
H	-1.328704	1.703663	-0.906737
