19

C	-0.884385	2.06095	-0.494382
C	-0.377509	1.035608	0.50652
C	-1.319033	-0.112036	1.022202
C	-0.007764	-0.86856	1.423916
C	0.344761	-0.282607	0.011508
C	1.63448	-0.407904	-0.750782
O	2.760404	0.059082	-0.018467
C	-1.082068	-0.742121	-0.356517
O	-1.666954	-1.293591	-1.237243
H	-0.054966	2.631318	-0.927361
H	-1.433226	1.593061	-1.317997
H	-1.555128	2.777731	-0.009117
H	0.165421	1.506194	1.333648
H	-2.236371	-0.011381	1.5981
H	0.546222	-0.413713	2.247611
H	-0.060269	-1.954533	1.518745
H	1.834261	-1.463186	-0.964639
H	1.542474	0.104242	-1.721427
H	2.653087	1.00636	0.113324
