19

C	1.767142	1.582665	-0.555399
C	1.220016	0.165422	-0.598483
C	1.975451	-0.967989	0.150334
C	0.604924	-1.549565	0.583786
C	-0.063917	-0.200795	0.211739
C	-0.68535	0.720229	1.277358
O	-1.967686	0.688953	0.565586
C	-1.453024	-0.132402	-0.408609
O	-2.009485	-0.569621	-1.365174
H	1.974499	1.905148	0.470956
H	2.706687	1.645178	-1.114775
H	1.068808	2.299487	-1.001345
H	1.043216	-0.133897	-1.637524
H	2.634574	-1.609248	-0.438653
H	2.540609	-0.577369	1.002653
H	0.259428	-2.347462	-0.078736
H	0.493865	-1.879125	1.619479
H	-0.790574	0.295065	2.27847
H	-0.305191	1.742168	1.331818
