19

C	-2.449787	-1.08956	-0.190796
C	-1.075646	-0.520605	0.03285
C	-0.735232	0.770755	0.074532
C	-1.653513	1.943345	-0.12602
C	0.701777	1.126244	0.383045
C	1.728469	0.092694	-0.045467
O	2.86381	0.366953	-0.324249
O	1.317707	-1.19213	-0.111935
C	-0.012081	-1.564347	0.267638
H	-2.496501	-1.646063	-1.135632
H	-2.70798	-1.802729	0.60307
H	-3.227937	-0.32606	-0.21099
H	-1.319168	2.552699	-0.975314
H	-2.689296	1.654469	-0.308584
H	-1.636793	2.602223	0.751921
H	0.997757	2.069158	-0.084552
H	0.82826	1.281928	1.465975
H	-0.226284	-2.465171	-0.316689
H	0.00189	-1.870196	1.325575
