19

O	-1.477392	-0.90288	-1.323594
C	-1.152529	-0.68532	0.037743
C	-1.715776	0.683453	0.542998
C	-0.582342	1.661004	0.217982
C	0.560845	0.982232	0.149486
C	1.896752	0.839147	-0.552144
C	1.493191	-0.670801	-0.784344
C	0.366239	-0.50752	0.292448
O	0.647789	-1.090453	1.557309
H	-1.261121	-0.095362	-1.804668
H	-1.548189	-1.54417	0.584189
H	-2.647271	0.924438	0.02018
H	-1.94522	0.653565	1.615186
H	-0.745922	2.711461	0.001695
H	2.067938	1.466721	-1.430292
H	2.766375	0.933321	0.107486
H	1.093003	-0.856455	-1.782837
H	2.252296	-1.420099	-0.548305
H	1.406649	-0.639916	1.942636
