19

O	2.794345	-0.161014	0.476865
C	1.648948	0.138553	-0.315552
C	0.688529	1.018573	0.533881
C	-0.713885	0.566321	0.083489
O	-1.290573	1.422153	-0.897677
C	-1.81392	-0.096453	0.9935
C	-1.824109	-1.328475	0.00533
C	-0.481925	-0.817292	-0.460961
C	0.802131	-1.101326	-0.630936
H	3.451263	-0.573273	-0.092604
H	1.961806	0.66271	-1.231996
H	0.875692	0.763817	1.581554
H	0.857698	2.090421	0.399297
H	-1.597159	2.21483	-0.443914
H	-1.43567	-0.369798	1.980983
H	-2.751941	0.456664	1.09151
H	-1.867921	-2.333441	0.430524
H	-2.61205	-1.218587	-0.745004
H	1.253479	-2.061861	-0.856365
