19

C	2.465076	-0.489153	-0.377969
C	0.954421	-0.579377	-0.46361
O	0.408743	-1.37575	0.633312
C	-0.416043	-0.297002	1.080129
C	-1.842641	-0.219709	0.454954
O	-1.745219	-0.657614	-0.901984
C	-1.344316	0.677414	-0.607725
C	0.102957	0.654484	-0.026903
C	0.722655	2.005977	0.240994
H	2.792573	-0.081178	0.582374
H	2.898675	-1.488418	-0.48431
H	2.861801	0.14009	-1.182351
H	0.643588	-1.00127	-1.42485
H	-0.347357	-0.089438	2.152012
H	-2.81352	-0.303052	0.931046
H	-1.831393	1.479291	-1.153123
H	0.006678	2.666422	0.743546
H	1.607575	1.931543	0.878787
H	1.02053	2.497124	-0.692979
