19

O	3.257544	0.520296	0.003789
C	2.315165	-0.123454	0.386384
C	1.275214	-0.755778	-0.5162
C	-0.135737	-0.297086	-0.188867
C	-0.851541	-0.560502	1.183761
C	-2.085563	-0.186549	0.328556
C	-1.407475	-0.931704	-0.845518
O	-1.868104	1.19829	0.01576
C	-0.477337	1.193774	-0.368674
H	2.146847	-0.299195	1.474331
H	1.536526	-0.530107	-1.555407
H	1.337027	-1.844624	-0.377414
H	-0.824898	-1.612195	1.476113
H	-0.617921	0.089611	2.030382
H	-3.117363	-0.337426	0.639618
H	-1.430657	-2.018675	-0.746275
H	-1.675898	-0.622297	-1.858601
H	-0.365349	1.537935	-1.403953
H	0.099809	1.856082	0.288163
