19

O	-0.206117	1.998796	-0.053541
C	-0.544809	0.841793	-0.060606
O	0.321957	-0.194763	-0.215529
C	1.688164	0.15028	-0.348204
C	2.631867	-1.003842	-0.415058
C	2.593238	-0.116499	0.815846
C	-1.945736	0.372681	0.082897
C	-2.261426	-0.921926	0.814039
C	-2.436291	-0.854755	-0.667574
H	1.84649	1.032545	-0.954975
H	2.201623	-1.994639	-0.323486
H	3.477971	-0.936332	-1.089291
H	2.137069	-0.530874	1.707583
H	3.409712	0.572779	0.998506
H	-2.635729	1.198209	0.20194
H	-1.419424	-1.483124	1.199472
H	-3.142176	-0.921091	1.445818
H	-1.712381	-1.369277	-1.286924
H	-3.439927	-0.806857	-1.074121
