19

C	4.236513	0.754855	0.168896
C	3.249931	0.114165	-0.071321
C	2.072167	-0.684729	-0.382082
O	0.926141	-0.112061	0.217796
C	-0.252963	-0.843264	-0.052842
C	-1.411759	-0.125984	0.608588
C	-2.814337	-0.6185	0.189965
O	-3.08244	0.605397	-0.521408
C	-1.845222	1.194383	-0.062754
H	5.105427	1.325937	0.384902
H	1.944224	-0.747297	-1.476495
H	2.219252	-1.7181	-0.023406
H	-0.422682	-0.913995	-1.141742
H	-0.16724	-1.874858	0.331196
H	-1.238584	-0.060802	1.684476
H	-2.842269	-1.495713	-0.470288
H	-3.517766	-0.777883	1.017235
H	-1.21509	1.538565	-0.891194
H	-2.02085	2.031912	0.62352
