19

O	2.967996	-0.394368	0.516879
C	2.234539	0.386779	-0.425764
C	0.749238	0.255377	-0.24558
C	-0.066511	1.284694	0.001265
C	-1.540236	0.963269	0.140335
C	-1.717021	-0.190093	1.158038
C	-1.381106	-1.03226	-0.093644
C	0.130794	-1.130498	-0.342356
O	-1.913609	0.03807	-0.928863
H	2.733817	-0.071865	1.393774
H	2.526217	1.446906	-0.384547
H	2.536885	-0.00011	-1.40676
H	0.292479	2.30535	0.096763
H	-2.194022	1.836368	0.180533
H	-1.051281	-0.226162	2.022529
H	-2.758048	-0.320809	1.457868
H	-1.902715	-1.979617	-0.252758
H	0.60736	-1.810596	0.374068
H	0.316033	-1.552694	-1.339359
