19

C	3.496927	0.106815	-0.108694
C	2.060711	0.142257	0.417698
C	1.047485	-0.43485	-0.584469
C	-0.365058	-0.365178	-0.077386
C	-1.039758	-1.423922	0.819208
C	-1.671741	-1.01779	-0.459615
O	-2.407604	0.220822	-0.246686
C	-1.213767	0.881135	0.02591
O	-1.054106	2.046048	0.196964
H	3.594909	0.688578	-1.031837
H	4.19649	0.523398	0.622048
H	3.815677	-0.918517	-0.328416
H	1.993703	-0.418993	1.358016
H	1.772468	1.173173	0.65272
H	1.120276	0.114564	-1.531799
H	1.299712	-1.478796	-0.810788
H	-0.520095	-2.378373	0.823178
H	-1.511465	-1.147829	1.756946
H	-1.956797	-1.622968	-1.308197
