19

O	-3.171541	-0.404555	0.768743
C	-2.418922	-0.674158	-0.411637
C	-1.037877	-0.09405	-0.348417
C	0.11105	-0.755108	-0.50813
C	1.326411	0.149718	-0.423399
C	0.720634	1.468708	0.141157
C	-0.802143	1.383015	-0.12135
C	2.394363	-0.419596	0.491109
O	3.506145	-0.732767	0.155508
H	-2.706581	-0.817213	1.504327
H	-2.369379	-1.752468	-0.622598
H	-2.989908	-0.20786	-1.223884
H	0.194289	-1.815569	-0.723615
H	1.788432	0.285434	-1.409056
H	0.902443	1.512774	1.221747
H	1.187506	2.352904	-0.297311
H	-1.401218	1.775633	0.705582
H	-1.097836	1.952483	-1.01379
H	2.054326	-0.538714	1.54859
