19

C	3.408927	-0.230509	0.08755
C	2.04218	-0.516443	-0.54651
C	1.040647	0.571519	-0.241962
O	0.515911	0.601265	1.101186
C	-0.375364	0.326309	0.041276
C	-1.60615	1.182325	-0.361945
C	-2.35325	-0.147852	-0.559719
O	-2.354469	-0.811875	0.703087
C	-1.187879	-0.94564	-0.12566
H	4.121306	-1.030185	-0.134456
H	3.830721	0.708278	-0.287657
H	3.315698	-0.146196	1.174106
H	2.143239	-0.606482	-1.636027
H	1.654766	-1.472608	-0.178899
H	1.30273	1.561256	-0.624994
H	-2.020954	1.822166	0.419369
H	-1.445212	1.756498	-1.277886
H	-3.135746	-0.395614	-1.266052
H	-0.872754	-1.950488	-0.37986
