19

C	2.709236	-1.165793	-0.051707
C	1.790148	-0.008428	-0.449473
C	0.553462	0.102108	0.449472
O	-0.212172	-1.10539	0.375301
C	-1.500607	-0.825909	-0.022899
O	-2.327815	-1.681596	-0.164349
C	-1.595455	0.636896	-0.206739
C	-0.415595	1.199227	0.067385
C	-0.027306	2.639205	0.040209
H	3.570861	-1.225697	-0.722689
H	3.087133	-1.037808	0.96864
H	2.172347	-2.116382	-0.094989
H	2.336486	0.941307	-0.398855
H	1.450552	-0.128656	-1.485018
H	0.87671	0.226188	1.494489
H	-2.51311	1.11833	-0.512891
H	0.75273	2.824253	-0.707735
H	-0.881769	3.278037	-0.193143
H	0.384651	2.952468	1.007086
