19

C	2.743139	-0.109747	-0.299163
C	1.302277	0.276261	-0.249569
C	0.767948	1.487764	-0.059108
C	-0.719519	1.397146	0.032439
O	-1.178085	0.564726	1.143374
C	-1.096769	-0.003687	-0.177387
C	-2.372665	-0.51907	-0.775721
C	0.213855	-0.797955	-0.321853
O	0.351557	-1.778198	0.696116
H	2.998833	-0.553457	-1.270193
H	3.402387	0.744972	-0.12764
H	2.952234	-0.875575	0.45618
H	1.319423	2.412808	0.063784
H	-1.372437	2.232959	-0.199991
H	-2.285052	-0.605352	-1.863945
H	-2.599664	-1.513701	-0.376481
H	-3.207145	0.146295	-0.541027
H	0.249474	-1.347456	-1.270849
H	0.124581	-1.317985	1.516405
