19

C	-1.702994	1.61139	0.071606
C	-1.369046	0.138622	-0.085313
C	-2.528328	-0.661633	-0.663845
O	-0.956239	-0.474251	1.195425
C	0.228358	-0.958902	0.589144
C	1.134743	0.194273	0.174246
C	2.48441	-0.183102	-0.29415
O	3.481239	0.475319	-0.121667
C	-0.023255	-0.274326	-0.710733
H	-2.551577	1.729877	0.752858
H	-0.862281	2.178759	0.475143
H	-1.980246	2.042837	-0.895561
H	-3.407859	-0.565279	-0.020577
H	-2.788845	-0.294136	-1.662277
H	-2.269027	-1.720805	-0.739458
H	0.586482	-1.945583	0.858587
H	1.078287	1.128984	0.721752
H	2.528837	-1.159478	-0.834308
H	0.122897	-0.601643	-1.731959
