19

O	-1.394737	-1.644324	-0.419833
C	-0.934355	-0.438734	0.089461
C	-1.926757	0.565851	0.558413
C	-1.04121	0.895432	-0.635732
C	0.197621	1.7408	-0.350068
C	1.151202	0.826842	0.455283
C	2.072342	-0.101368	-0.371477
O	1.334897	-1.284863	0.016842
C	0.405284	-0.487983	0.796017
H	-0.618705	-2.065265	-0.816146
H	-2.964527	0.334837	0.343918
H	-1.764488	1.088273	1.498318
H	-1.520271	0.951754	-1.606162
H	0.674337	2.073366	-1.278433
H	-0.051776	2.646554	0.21502
H	1.655134	1.33401	1.278047
H	2.051177	0.059966	-1.456624
H	3.114989	-0.156686	-0.038286
H	0.358087	-0.838357	1.832901
