19

C	-3.629202	0.664772	0.276294
C	-2.330821	0.088472	-0.03897
C	-1.256996	-0.388886	-0.301602
C	0.042294	-0.996788	-0.63602
O	0.672229	-1.56668	0.491743
C	1.386157	-0.492602	1.087771
C	1.866744	0.333433	-0.119998
C	1.870615	1.838697	0.097031
O	0.944304	-0.032768	-1.158715
H	-3.972889	0.34703	1.266723
H	-3.590156	1.759487	0.271805
H	-4.385783	0.355574	-0.453021
H	-0.088062	-1.793315	-1.376868
H	0.728202	0.104726	1.735805
H	2.1978	-0.912243	1.685026
H	2.863964	-0.002951	-0.434062
H	2.590843	2.110865	0.876713
H	2.153006	2.358193	-0.822436
H	0.878073	2.185636	0.399052
