19

C	-1.932508	1.087951	0.128346
C	-0.909867	-0.035436	0.063079
O	-1.640399	-1.246032	-0.027138
C	0.127341	-0.066221	1.195852
C	1.349502	0.726327	0.725356
C	1.044192	1.244351	-0.677478
C	0.151398	0.057608	-1.075985
O	0.980891	-1.086843	-0.775518
C	1.304908	-0.77422	0.577218
H	-1.467395	2.058914	0.309678
H	-2.507236	1.135684	-0.801873
H	-2.634731	0.888864	0.942833
H	-0.993483	-1.92744	-0.252648
H	-0.153209	-0.172932	2.234913
H	2.024488	1.2218	1.410126
H	0.518361	2.200959	-0.69891
H	1.937908	1.312246	-1.304406
H	-0.217183	-0.011693	-2.097166
H	1.958749	-1.485561	1.060384
