19

O	-2.914107	-0.000864	-0.626837
C	-1.710751	0.027685	-0.593334
C	-0.901212	0.337043	0.66928
C	-0.124032	-0.899115	1.188348
C	0.727192	-1.624381	0.131744
O	1.261344	-0.783692	-0.873246
C	2.053775	0.294797	-0.416513
C	1.2619	1.508481	0.003166
C	0.000874	1.531162	0.436029
H	-1.093372	-0.160283	-1.495426
H	-1.642363	0.609532	1.427255
H	0.509151	-0.555259	2.013222
H	-0.827946	-1.623062	1.614686
H	1.533442	-2.182632	0.634408
H	0.119022	-2.351841	-0.414643
H	2.7276	-0.032011	0.395278
H	2.699532	0.570484	-1.258595
H	1.79983	2.450971	-0.081472
H	-0.449278	2.496516	0.653624
