19

C	2.051914	-0.588351	-0.112876
C	1.829411	0.936585	0.198433
C	0.310817	0.673647	0.11627
C	-0.883898	1.374365	-0.513513
O	-1.882728	0.315251	-0.418133
C	-1.325022	-0.719898	0.392315
C	-0.398421	0.03541	1.338152
O	-0.416417	-1.536925	-0.356941
C	0.606822	-0.599881	-0.695564
H	2.861934	-0.845105	-0.797616
H	2.146901	-1.190405	0.792293
H	2.222003	1.32892	1.138447
H	2.186277	1.566144	-0.621531
H	-1.236797	2.26594	0.021673
H	-0.737791	1.622732	-1.570159
H	-2.131728	-1.348092	0.764435
H	-0.906996	0.767751	1.969878
H	0.221479	-0.624884	1.943609
H	0.618137	-0.440874	-1.77974
