19

C	-1.595172	1.639293	-0.433686
C	-0.667655	0.53238	-0.93447
C	-0.935423	-1.00752	-0.772479
C	0.579075	-1.211968	-1.083287
C	0.53628	-0.02755	-0.085825
C	1.687171	0.721716	0.480233
O	2.84537	0.431541	0.296716
C	-0.51122	-0.926062	0.716196
O	-1.355514	-0.425097	1.711545
H	-1.237471	2.609787	-0.792598
H	-2.608678	1.509177	-0.832064
H	-1.653494	1.709254	0.653397
H	-0.36012	0.772881	-1.958167
H	-1.769593	-1.57883	-1.185596
H	1.03505	-2.138052	-0.72886
H	0.899026	-0.96564	-2.096204
H	1.409588	1.591192	1.119143
H	-0.047	-1.828373	1.12523
H	-2.144489	-0.054676	1.309541
