19

O	-3.237661	-0.016265	-0.435714
C	-2.059431	-0.791707	-0.444697
C	-1.047118	-0.270288	0.572104
C	0.315614	-0.988897	0.53409
C	1.338014	0.176217	0.520482
C	0.526558	1.261181	-0.217284
O	-0.791121	1.121835	0.285653
C	2.618605	-0.1375	-0.089173
C	3.671303	-0.39156	-0.61102
H	-2.943038	0.901584	-0.486679
H	-2.344082	-1.821303	-0.199233
H	-1.588999	-0.805358	-1.443285
H	-1.502904	-0.298581	1.568663
H	0.462602	-1.660172	1.381725
H	0.420875	-1.577687	-0.382961
H	1.497283	0.518798	1.550101
H	0.868506	2.277489	-0.006987
H	0.573781	1.092034	-1.303526
H	4.60497	-0.61604	-1.064344
