19

C	2.717405	-0.347734	0.15394
C	1.288195	-0.373249	-0.389021
C	0.401148	-1.554685	0.049873
C	-1.020812	-0.990841	0.083307
O	-2.03361	-1.598514	-0.147975
C	-0.92895	0.496249	0.422512
C	-2.059129	1.382559	-0.091455
C	0.482955	0.887936	-0.023405
O	0.902285	2.014249	-0.097196
H	2.721111	-0.407519	1.247827
H	3.300504	-1.188788	-0.231626
H	3.211289	0.583029	-0.135446
H	1.332148	-0.357957	-1.488511
H	0.458362	-2.437744	-0.588989
H	0.662881	-1.868557	1.07016
H	-0.898627	0.542201	1.525212
H	-2.123098	1.335759	-1.182339
H	-3.017088	1.051106	0.314612
H	-1.881754	2.421174	0.195969
