19

C	-1.471911	0.046707	-0.99986
O	-1.26441	-1.179426	-0.296687
C	-0.35853	-0.963347	0.785667
C	1.062234	-1.308515	0.331857
O	1.454517	-0.486004	-0.75296
C	1.566815	0.881775	-0.404933
C	0.357504	1.436513	0.322973
C	-1.087553	1.173458	-0.04537
C	-0.484564	0.513813	1.169913
H	-0.88561	0.054087	-1.926755
H	-2.534176	0.110866	-1.262768
H	-0.653804	-1.622241	1.609946
H	1.765622	-1.216446	1.178185
H	1.095633	-2.334942	-0.042636
H	2.452389	1.033687	0.237677
H	1.74577	1.415871	-1.344473
H	0.54035	2.425347	0.737547
H	-1.782397	1.997761	0.067575
H	-0.768594	0.77703	2.181398
