19

O	-2.108972	-1.071186	0.015781
C	-1.040816	-0.182237	0.063118
C	-1.153365	1.318857	-0.352453
C	0.362574	1.167923	-0.590748
C	0.096493	-0.296544	-1.012605
O	1.213563	-1.10739	-0.708478
C	1.990052	-0.364149	0.247625
C	1.007528	0.697314	0.753122
C	-0.205909	-0.074521	1.356582
H	-2.64458	-0.953593	0.807797
H	-1.707095	1.449363	-1.285212
H	-1.4991	2.034713	0.398186
H	0.936247	1.856935	-1.208102
H	-0.256274	-0.490602	-2.025438
H	2.334641	-1.044549	1.033565
H	2.869048	0.078885	-0.244252
H	1.449869	1.465787	1.387869
H	0.075594	-1.053482	1.75398
H	-0.734425	0.4853	2.135334
