19

C	-1.573301	1.930257	0.277153
C	-0.942723	0.70019	-0.363312
C	0.255845	0.008386	0.329799
O	-0.54604	-1.228762	0.459854
C	-1.641335	-0.639152	-0.113868
O	-2.719753	-1.112844	-0.281871
C	1.516122	-0.207617	-0.441321
C	2.682053	0.731887	-0.230056
C	2.760125	-0.687199	0.26409
H	-0.936641	2.8103	0.145531
H	-2.543665	2.139775	-0.181652
H	-1.734663	1.781322	1.349437
H	-0.766757	0.862115	-1.431451
H	0.465911	0.396863	1.33219
H	1.360276	-0.571653	-1.4532
H	3.266806	1.014775	-1.097606
H	2.573176	1.521674	0.506181
H	3.401764	-1.384473	-0.26178
H	2.699425	-0.858365	1.333575
