19

C	-2.976642	0.016156	0.088022
O	-1.781248	-0.525899	-0.428615
C	-0.630961	-0.226344	0.345769
C	0.455119	-1.234755	-0.035715
C	1.804704	-1.17635	0.626752
C	1.602111	-0.501505	-0.708996
C	1.252108	0.968679	-0.666445
O	1.12604	1.517873	0.658656
C	-0.06653	1.147375	-0.04126
H	-2.96435	1.11573	0.120334
H	-3.786072	-0.302275	-0.573321
H	-3.180329	-0.352955	1.10506
H	-0.8778	-0.265752	1.418268
H	0.090925	-2.185327	-0.406757
H	1.93994	-0.537039	1.490363
H	2.381624	-2.094792	0.63651
H	2.092448	-0.883727	-1.595795
H	1.656007	1.64982	-1.409773
H	-0.750185	1.960991	-0.273968
