19

C	-2.993618	-0.262512	-0.354465
O	-1.687148	0.272336	-0.461015
C	-0.692612	-0.674719	-0.279455
C	-0.30462	-1.09125	1.117994
C	0.613172	-0.176867	0.328253
O	0.653634	1.130252	0.805621
C	0.851512	2.106604	-0.211259
C	1.848952	-0.700788	-0.202008
C	2.881535	-1.123889	-0.651488
H	-3.167887	-0.707589	0.635007
H	-3.690231	0.565027	-0.504996
H	-3.1792	-1.030579	-1.119878
H	-0.615483	-1.421023	-1.071409
H	-0.821831	-0.590615	1.928917
H	0.012358	-2.109734	1.306828
H	0.877009	3.074341	0.294157
H	1.80374	1.949067	-0.734086
H	0.029461	2.091853	-0.935175
H	3.794247	-1.500922	-1.041653
