19

C	-2.66252	0.687079	-0.009183
C	-1.798786	-0.558433	-0.023274
C	-0.730436	-0.679429	1.088038
C	0.274399	-0.430346	-0.061948
C	1.573329	-1.259697	-0.246307
C	2.437983	-0.02824	0.160229
C	1.165665	0.833105	0.033699
O	0.94189	2.006081	-0.037145
O	-0.758855	-0.486303	-1.040798
H	-3.393616	0.637136	0.805468
H	-2.041174	1.578196	0.122748
H	-3.207111	0.78301	-0.95345
H	-2.408824	-1.457108	-0.172277
H	-0.767917	0.081607	1.86967
H	-0.646823	-1.670191	1.538474
H	1.662886	-2.153426	0.37362
H	1.705538	-1.533921	-1.295527
H	2.813758	-0.060079	1.187779
H	3.261201	0.252322	-0.500492
