19

O	-2.586486	-0.264607	0.171737
C	-1.408783	-0.091683	-0.049435
C	-0.868815	1.299884	-0.383904
C	0.442426	1.70108	0.312259
O	1.601561	0.995308	-0.09359
C	1.59969	-0.417261	0.001691
C	0.679279	-1.042786	1.086218
C	-0.422796	-1.243899	-0.010339
C	0.721984	-1.131784	-1.065252
H	-0.723189	1.35969	-1.470471
H	-1.652292	2.01671	-0.122502
H	0.65997	2.746343	0.074375
H	0.310744	1.6429	1.402556
H	2.655016	-0.697523	0.030083
H	1.073142	-2.01141	1.402608
H	0.439024	-0.462982	1.979079
H	-0.991612	-2.173039	0.032968
H	1.121579	-2.119485	-1.309016
H	0.52911	-0.588113	-1.992282
