19

C	-1.425981	1.971424	-0.004981
C	-0.607992	0.752524	0.271281
C	0.708638	0.605825	0.385299
C	2.043996	0.971521	-0.212195
O	2.264232	-0.45079	-0.479654
C	1.168361	-0.810345	0.43485
C	-0.062005	-1.60672	-0.014421
C	-1.242692	-0.653883	0.375849
O	-2.395321	-0.813697	-0.432001
H	-2.165271	1.781626	-0.789231
H	-1.994469	2.271101	0.885288
H	-0.800062	2.817711	-0.300818
H	2.036636	1.579846	-1.123322
H	2.801411	1.359868	0.481601
H	1.596481	-1.178828	1.376588
H	-0.042943	-1.699864	-1.106893
H	-0.154437	-2.60661	0.416956
H	-1.600175	-0.868325	1.391187
H	-2.122413	-0.722705	-1.352219
