19

O	2.634355	-0.918675	-0.024336
C	1.476751	-0.20591	-0.39581
C	1.367429	1.289085	0.023675
C	-0.036296	1.002732	0.631717
C	-1.261651	1.295291	-0.277669
C	-1.838504	-0.065452	-0.627514
O	-2.165291	-0.858525	0.522469
C	-0.943628	-1.140898	-0.174111
C	0.255853	-0.531336	0.500936
H	3.357079	-0.642982	-0.597436
H	1.24684	-0.353907	-1.462012
H	2.10866	1.5157	0.794921
H	1.428591	2.043889	-0.766005
H	-0.189051	1.381494	1.641502
H	-2.006184	1.920614	0.224763
H	-0.970321	1.819377	-1.196338
H	-2.513427	-0.180076	-1.473008
H	-0.890591	-2.112692	-0.66094
H	0.556168	-1.034884	1.422141
