19

C	1.856225	-1.530168	-0.282069
C	0.941058	-0.383456	0.091117
O	0.665796	-0.492105	1.46775
C	1.340374	1.070028	-0.323248
C	-0.151891	1.356363	-0.627598
O	-0.86118	1.800085	0.522123
C	-0.371886	-0.179937	-0.777119
C	-1.614561	-0.777657	-0.348729
C	-2.639333	-1.289373	0.016801
H	2.77182	-1.48884	0.316206
H	1.362009	-2.48502	-0.079295
H	2.128118	-1.491172	-1.340699
H	0.000523	0.176921	1.679602
H	1.807248	1.67629	0.457265
H	1.956822	1.095832	-1.226534
H	-0.393297	1.974509	-1.500167
H	-0.53472	2.677199	0.750315
H	-0.150111	-0.457559	-1.813492
H	-3.545267	-1.736795	0.342888
