19

C	-2.645184	-0.57197	-0.45227
C	-1.167172	-0.35734	-0.687689
C	-0.119745	-0.938486	0.23109
C	1.178651	-1.501928	-0.305739
O	2.279889	-1.244575	0.5506
C	-0.371546	0.568387	0.214422
O	-1.095195	1.120067	1.282275
C	0.642758	1.429688	-0.340308
C	1.528207	2.134227	-0.753959
H	-2.955325	-1.546754	-0.843351
H	-2.883859	-0.532843	0.611896
H	-3.237702	0.197843	-0.957015
H	-0.875624	-0.306689	-1.73382
H	-0.492801	-1.409602	1.137258
H	1.104433	-2.591769	-0.387498
H	1.36157	-1.110788	-1.317151
H	2.434859	-0.293311	0.51777
H	-0.487088	1.237679	2.020788
H	2.278167	2.77683	-1.145158
