19

C	2.265808	-0.971011	0.337851
C	0.860506	-0.708372	-0.086673
C	-0.127818	-1.55279	-0.395777
C	-1.357838	-0.670107	-0.545385
O	-1.75293	-0.267486	0.792846
C	-0.743486	0.672134	1.164261
C	0.195757	0.677991	-0.092292
C	1.034358	1.907503	-0.328366
O	-0.828553	0.511778	-1.098203
H	2.449956	-0.608276	1.357562
H	2.492233	-2.040172	0.318036
H	2.986147	-0.457277	-0.310341
H	-0.120955	-2.634284	-0.390009
H	-2.231143	-1.030654	-1.084509
H	-1.194585	1.660224	1.311372
H	-0.235305	0.357897	2.082538
H	1.764857	2.037219	0.476191
H	1.575708	1.830476	-1.275444
H	0.401228	2.798416	-0.364248
