19

C	-1.730939	1.501921	0.348968
C	-0.566523	0.615345	-0.027194
C	0.694203	1.291421	-0.598914
C	1.887519	0.51228	-0.063768
O	1.95344	-0.854287	-0.49406
C	1.407856	-0.57391	0.807588
C	-0.099046	-0.5408	0.862695
C	-0.826826	-0.825907	-0.421622
O	-2.116371	-1.348509	-0.26288
H	-2.089129	2.07227	-0.517357
H	-2.565437	0.906731	0.726028
H	-1.446183	2.225054	1.121706
H	0.698659	1.331714	-1.694277
H	0.750967	2.325315	-0.237349
H	2.85149	1.001857	0.055965
H	1.978847	-0.97088	1.642038
H	-0.601917	-0.774585	1.793906
H	-0.245464	-1.2561	-1.233667
H	-2.625857	-1.121111	-1.048
