19

O	0.699605	2.094798	-0.012226
C	0.803045	0.900815	-0.010848
O	2.003108	0.273447	0.129351
C	1.826451	-1.154354	0.142649
C	0.45325	-1.404655	-0.497059
C	-0.309017	-0.130477	-0.129679
C	-1.246067	-0.218271	1.128085
C	-2.471871	-0.24438	0.178247
C	-1.554206	0.263195	-0.964904
H	2.658619	-1.598701	-0.407012
H	1.867849	-1.501284	1.181993
H	0.554856	-1.48097	-1.5854
H	-0.013806	-2.323976	-0.135715
H	-1.091543	-1.074531	1.789819
H	-1.200994	0.700395	1.717645
H	-2.834887	-1.260087	-0.000321
H	-3.322281	0.38318	0.451579
H	-1.652031	-0.210096	-1.945311
H	-1.596996	1.348863	-1.083228
