19

C	-3.190544	0.046468	-0.000216
C	-1.7116	0.393029	-1.5e-05
C	-0.788417	-0.235067	1.08329
C	0.309385	-0.386839	0.00026
C	1.44415	-1.418439	8.1e-05
O	2.438246	-0.339315	-0.000372
C	1.455977	0.621352	0.000117
O	1.590571	1.803708	0.000119
C	-0.788121	-0.234946	-1.083151
H	-3.693427	0.453003	0.884124
H	-3.693269	0.45327	-0.88452
H	-3.340539	-1.039396	-0.000389
H	-1.573543	1.478676	5.1e-05
H	-0.544291	0.361292	1.96516
H	-1.154702	-1.216557	1.403536
H	1.541412	-2.031787	0.899149
H	1.54089	-2.032115	-0.898813
H	-0.543736	0.361526	-1.964869
H	-1.154308	-1.216402	-1.403612
