19

O	1.780133	-1.854197	0.250545
C	1.344106	-0.647593	-0.358127
C	2.287517	0.524344	-0.221494
C	1.641413	1.653081	0.066007
C	0.148326	1.44665	0.1665
C	0.014206	-0.096473	0.233088
C	-1.240912	-0.68652	-0.424201
C	-2.502043	-0.303206	0.313137
O	-3.431951	0.29538	-0.163018
H	2.030922	-1.645154	1.157692
H	1.215284	-0.918055	-1.415332
H	3.353582	0.418592	-0.388774
H	2.101904	2.629	0.176155
H	-0.299832	1.953616	1.028643
H	-0.360054	1.849937	-0.720724
H	0.019831	-0.389564	1.292525
H	-1.332755	-0.369994	-1.467949
H	-1.156683	-1.782692	-0.396981
H	-2.513327	-0.61684	1.385072
