19

C	-1.474666	1.377666	-0.766921
C	-1.171254	0.064573	-0.065784
C	-2.443653	-0.667882	0.345619
O	-0.35924	-0.81558	-0.919972
C	0.60306	-1.037137	0.130036
C	-0.08431	0.02572	1.043818
C	1.128114	0.981808	0.881324
C	1.799246	-0.066227	-0.036182
O	2.836917	-0.11437	-0.625088
H	-2.122836	1.195292	-1.630126
H	-1.993738	2.066814	-0.092419
H	-0.565331	1.860278	-1.130836
H	-2.206826	-1.610652	0.847314
H	-3.039159	-0.053404	1.029763
H	-3.051492	-0.892881	-0.535836
H	0.779194	-2.093486	0.350572
H	-0.422458	-0.175793	2.058345
H	0.961298	1.977044	0.463743
H	1.700708	1.09526	1.808504
