19

C	-2.031695	1.612828	0.122213
C	-1.864864	0.252335	-0.569899
C	-0.607153	-0.448836	-0.162492
O	-0.543319	-1.04622	1.142089
C	-0.23586	-1.864509	0.003677
C	1.22799	-1.593198	-0.356212
C	0.85945	-0.071004	-0.540685
C	1.533181	0.922563	0.366499
O	2.09404	1.921436	-0.012824
H	-2.959405	2.097166	-0.194836
H	-2.063952	1.491928	1.208904
H	-1.203225	2.286587	-0.11906
H	-2.712142	-0.399743	-0.329949
H	-1.85749	0.383327	-1.658949
H	-0.818309	-2.770325	-0.120063
H	1.949018	-1.833484	0.429404
H	1.547963	-2.044911	-1.297131
H	0.955699	0.258313	-1.577297
H	1.469777	0.668343	1.446247
