19

C	-1.235936	-0.4325	1.47709
C	-1.049533	-0.191336	-0.026688
O	-2.186286	-0.681112	-0.739054
C	-0.84487	1.309008	-0.335598
C	0.539415	1.802804	-0.020223
C	1.603297	0.997507	0.08716
C	1.499584	-0.464746	-0.109815
O	2.450209	-1.202889	0.053521
C	0.144239	-0.98546	-0.574717
H	-1.377582	-1.499257	1.670298
H	-0.374934	-0.085104	2.05495
H	-2.119381	0.103958	1.844409
H	-2.977517	-0.325888	-0.31946
H	-1.051168	1.462223	-1.404144
H	-1.587502	1.912098	0.202869
H	0.660022	2.875092	0.117863
H	2.592357	1.375327	0.325401
H	0.122028	-0.913108	-1.670594
H	0.065112	-2.044992	-0.32059
