19

O	1.740008	1.526627	-0.051793
C	1.235845	0.218221	-0.006513
C	2.080722	-0.857312	-0.672759
C	2.079885	-0.712298	0.828369
C	-0.237759	0.118847	0.002678
C	-1.107208	1.126012	0.079147
C	-2.512326	0.603211	0.048249
O	-2.381415	-0.816102	-0.018864
C	-1.009023	-1.177295	-0.095719
H	1.483758	1.904369	-0.901322
H	1.589353	-1.716217	-1.115576
H	2.954942	-0.502522	-1.206377
H	1.582296	-1.465921	1.427225
H	2.948529	-0.258304	1.29037
H	-0.859279	2.174872	0.169558
H	-3.088063	0.877787	0.946229
H	-3.082212	0.969184	-0.821859
H	-0.766759	-1.877858	0.719214
H	-0.812119	-1.705911	-1.042922
