19

C	-2.490596	-0.946004	-0.466247
C	-1.279198	-0.662651	0.427753
C	-0.021784	-1.452169	0.125669
C	1.092626	-0.711726	0.085383
C	2.487983	-1.154668	-0.20616
C	0.788075	0.730267	0.434437
O	1.421919	1.686716	-0.381579
C	-0.737749	0.761806	0.277398
O	-1.344287	1.74838	-0.056935
H	-2.865508	-1.960226	-0.300663
H	-3.295616	-0.238382	-0.252459
H	-2.22533	-0.847126	-1.523024
H	-1.58049	-0.797606	1.479508
H	-0.049464	-2.524465	-0.041773
H	3.142467	-0.995671	0.660373
H	2.525783	-2.212877	-0.477947
H	2.908076	-0.56258	-1.026396
H	1.036604	0.916698	1.497621
H	0.746287	2.352339	-0.576524
