19

C	-1.970966	-1.203372	0.125334
C	-0.583524	-0.634948	0.117436
O	0.371141	-1.483811	-0.493422
C	1.453832	-0.66484	-0.948422
C	1.265258	0.638151	-0.1913
O	1.343188	0.314546	1.231996
C	-0.081059	0.234425	1.267762
C	-0.274603	0.822386	-0.115449
C	-1.114945	1.911741	-0.708148
H	-2.65614	-0.550399	0.674217
H	-2.352151	-1.326539	-0.893568
H	-1.974684	-2.183559	0.611784
H	2.39863	-1.15504	-0.695409
H	1.401677	-0.515701	-2.039158
H	1.908133	1.475595	-0.4685
H	-0.581121	0.393979	2.218057
H	-0.792919	2.901124	-0.364692
H	-1.063139	1.903287	-1.80351
H	-2.166873	1.790114	-0.431084
