19

C	-2.000879	0.578256	-0.264666
C	-0.902344	1.400561	0.423557
C	0.543481	1.121011	-0.014153
C	1.415811	0.131422	0.799588
O	2.343038	0.051237	-0.34746
C	0.985092	-0.074361	-0.92271
C	0.640174	-1.081281	0.206016
C	-0.838057	-1.399663	0.475035
O	-1.693381	-0.790212	-0.4771
H	-2.928248	0.669765	0.323676
H	-2.207802	0.982944	-1.261819
H	-1.139147	2.456074	0.252345
H	-0.970987	1.262259	1.509076
H	1.096694	2.028854	-0.263115
H	1.852622	0.255565	1.792539
H	0.905156	-0.193622	-2.002759
H	1.265509	-1.97651	0.175289
H	-0.996272	-2.474651	0.348875
H	-1.13445	-1.154538	1.506368
