19

C	2.79073	0.613964	0.285536
O	2.610488	-0.800098	0.193351
C	1.643263	0.046041	-0.433715
C	0.250923	0.032998	0.141495
C	-0.609413	1.243558	-0.315367
C	-2.031574	0.723265	-0.271729
O	-2.345707	0.01554	0.936385
C	-2.009315	-0.743792	-0.235294
C	-0.572904	-1.222857	-0.257142
H	2.643762	1.039025	1.277871
H	3.636938	1.016034	-0.270024
H	1.692353	0.030745	-1.525892
H	0.333135	0.054807	1.230688
H	-0.454318	2.12303	0.316726
H	-0.369555	1.534374	-1.347196
H	-2.849486	1.294136	-0.704281
H	-2.811612	-1.357429	-0.637391
H	-0.385833	-2.06553	0.413856
H	-0.323884	-1.551795	-1.274944
