19

C	1.933857	0.538184	0.273212
O	1.758762	-0.453716	-0.790995
C	0.394366	0.02688	-0.942733
C	-0.956646	-0.668188	-0.81056
C	-1.780041	0.619125	-0.413283
C	-0.787488	1.487673	0.489445
C	0.403288	0.529525	0.490434
C	-0.018428	-0.757958	1.250511
O	-0.85067	-1.49446	0.335031
H	2.578931	0.167522	1.074411
H	2.330857	1.479035	-0.129326
H	0.368218	0.815507	-1.706378
H	-1.379415	-1.247478	-1.631482
H	-2.111648	1.179046	-1.292049
H	-2.666575	0.301858	0.139037
H	-0.556453	2.442019	0.008816
H	-1.208105	1.695423	1.476753
H	0.833638	-1.384846	1.529117
H	-0.58763	-0.514116	2.15665
