19

O	2.416188	-0.157089	0.666441
C	1.121506	-0.069986	0.130153
C	0.777444	1.279074	-0.596347
C	-0.777535	1.279149	-0.596173
C	-1.121497	-0.070001	0.130164
O	-2.416169	-0.157232	0.66646
C	1.7e-05	-0.115431	1.185892
C	-0.667138	-1.188868	-0.803819
C	0.667188	-1.189041	-0.803605
H	3.048574	-0.026456	-0.04782
H	1.184812	2.111423	-0.014951
H	1.20792	1.323906	-1.601106
H	-1.184736	2.111442	-0.014575
H	-1.208211	1.324129	-1.600838
H	-3.04857	-0.026574	-0.047783
H	2.6e-05	0.749642	1.855561
H	2.8e-05	-1.042925	1.760385
H	-1.340037	-1.779544	-1.415025
H	1.340125	-1.779845	-1.414642
