19

C	-2.145522	-1.126628	0.086601
C	-0.837849	-0.35867	-0.090149
C	-1.083505	1.093311	-0.557545
O	-0.759711	2.087048	0.38962
C	0.203587	-0.810251	0.913784
C	1.613763	-0.170918	0.760438
O	1.598145	0.816687	-0.285054
C	1.686845	-0.580466	-0.636058
C	0.286241	-1.259475	-0.551903
H	-2.778771	-0.625666	0.826516
H	-2.699367	-1.165523	-0.857843
H	-1.979203	-2.155435	0.420817
H	-0.572857	1.264529	-1.512914
H	-2.158071	1.204767	-0.740231
H	0.203261	2.128172	0.387272
H	-0.064406	-1.405964	1.777654
H	2.37096	-0.071203	1.528587
H	2.520517	-0.876164	-1.261086
H	0.109106	-2.24881	-0.95632
