19

C	2.25258	0.196187	-0.716391
C	0.75349	0.001034	-0.885812
C	0.046712	-1.316283	-0.383439
C	0.399209	-1.286411	1.110565
O	0.224469	0.124605	1.404246
C	-0.218155	0.679261	0.144063
C	-0.502489	2.145415	0.25086
C	-1.20641	-0.411705	-0.33414
O	-2.348928	-0.480881	-0.672172
H	2.546883	0.151656	0.334263
H	2.814758	-0.563276	-1.269133
H	2.55186	1.175732	-1.102808
H	0.438076	0.221996	-1.910721
H	0.083333	-2.263668	-0.915787
H	-0.283954	-1.887265	1.721782
H	1.42915	-1.587165	1.331261
H	-1.260299	2.328863	1.01769
H	0.401496	2.698212	0.524899
H	-0.87525	2.53013	-0.702272
