19

C	-1.601495	-1.118145	0.256574
O	-2.463252	-0.02421	-0.049398
C	-1.696939	1.181009	-0.05004
C	-0.252586	0.745605	-0.133696
C	0.864049	1.414637	0.124813
C	2.202307	0.720865	0.115302
O	2.148179	-0.633432	-0.292498
C	1.023111	-1.341741	0.208749
C	-0.253892	-0.746473	-0.375914
H	-1.496051	-1.245073	1.347589
H	-2.058211	-2.021907	-0.154854
H	-2.017945	1.782878	-0.90963
H	-1.88937	1.768148	0.860667
H	0.860634	2.466924	0.399246
H	2.895321	1.214154	-0.577435
H	2.652218	0.802297	1.122462
H	1.171915	-2.384352	-0.085594
H	0.988405	-1.295852	1.310022
H	-0.293668	-0.96063	-1.452034
