19

C	-3.314561	-0.362131	0.089699
O	-1.919838	-0.411922	0.26943
C	-1.23731	0.60437	-0.443489
C	0.230877	0.418138	-0.263197
C	1.243188	1.532542	-0.243628
C	1.100686	0.651018	0.969174
C	1.754423	-0.746672	0.731275
O	2.353552	-0.783101	-0.574265
C	0.935759	-0.970543	-0.450795
H	-3.596644	-0.478578	-0.969098
H	-3.748682	-1.184772	0.663081
H	-3.740612	0.586998	0.452821
H	-1.50524	0.551706	-1.514782
H	-1.542649	1.602773	-0.085872
H	2.130188	1.471637	-0.86105
H	0.821713	2.526863	-0.131092
H	0.795318	1.015825	1.940595
H	2.140389	-1.425465	1.481369
H	0.498139	-1.86713	-0.871536
