19

C	3.205949	-0.414221	0.094744
C	1.742135	-0.776409	-0.136781
C	0.80556	0.41045	-0.012712
O	1.181139	1.534969	0.250386
C	-0.637547	0.132248	-0.222465
C	-1.656785	1.159556	-0.633414
C	-1.834343	0.45126	0.677447
C	-2.219686	-1.003088	0.428739
O	-1.107969	-1.193177	-0.490879
H	3.35327	-0.002017	1.09637
H	3.843191	-1.296042	-0.014479
H	3.538313	0.344474	-0.618499
H	1.583137	-1.221443	-1.128838
H	1.394429	-1.549341	0.561192
H	-1.307189	2.182787	-0.555601
H	-2.298489	0.928779	-1.479115
H	-1.832419	0.960448	1.631157
H	-2.103914	-1.646532	1.307307
H	-3.18738	-1.194222	-0.0489
