19

C	2.675504	0.704019	-0.150334
C	1.198978	0.49582	-0.445137
C	0.70007	-0.986834	-0.482269
O	0.659431	-0.967916	0.968057
C	0.246389	0.41106	0.794117
C	-1.144712	0.271611	0.095766
C	-2.084434	1.425473	-0.069103
O	-1.688969	-1.04715	0.231028
C	-0.79671	-0.786745	-0.85588
H	2.875676	1.745419	0.12383
H	3.00012	0.062138	0.672179
H	3.285311	0.472974	-1.030451
H	0.856294	1.133748	-1.268521
H	1.26732	-1.813392	-0.909934
H	0.346826	1.032087	1.684923
H	-2.535065	1.700136	0.891241
H	-1.557777	2.306025	-0.453199
H	-2.891099	1.172542	-0.761786
H	-1.181809	-0.897576	-1.863922
