19

C	2.814433	0.131638	-0.715053
O	1.974651	-0.500696	0.237217
C	0.671663	-0.663341	-0.205356
C	-0.316716	-1.023517	0.829455
C	-1.65561	-1.340781	0.149746
C	-1.658028	0.124537	-0.366839
O	-2.49223	0.801472	-0.902222
C	-0.330956	0.43226	0.24994
C	0.118907	1.751246	0.805182
H	2.477949	1.151402	-0.943217
H	3.814359	0.171575	-0.278565
H	2.854972	-0.442648	-1.651686
H	0.59545	-1.085605	-1.21107
H	-0.016731	-1.321905	1.825278
H	-1.662921	-2.14469	-0.593291
H	-2.481578	-1.492158	0.850487
H	0.152977	2.510183	0.016069
H	-0.570103	2.111062	1.576062
H	1.114099	1.664324	1.247531
