19

O	-3.216677	0.570651	-0.135068
C	-2.365516	-0.560505	0.002007
C	-0.924688	-0.276407	-0.34707
C	0.199836	-0.898216	0.445044
O	1.336595	-1.28595	-0.271253
C	2.483132	-0.462441	-0.086169
C	2.183885	1.010837	-0.203991
C	0.97539	1.485039	0.093355
C	-0.078169	0.570667	0.596297
H	-3.165866	0.865312	-1.049959
H	-2.443139	-0.853735	1.054887
H	-2.73344	-1.408894	-0.596514
H	-0.700191	-0.160651	-1.404789
H	-0.053413	-1.574155	1.260871
H	2.960231	-0.675228	0.886405
H	3.190279	-0.77528	-0.861194
H	2.988009	1.660411	-0.536663
H	0.740589	2.541428	-0.002757
H	-0.585628	0.889337	1.503449
