19

C	-2.184696	-1.66856	-0.098392
C	-1.313546	-0.477953	0.303336
O	-0.130042	-0.549486	-0.487749
C	0.874994	0.365712	-0.132617
C	2.148118	0.205594	-0.975583
O	2.958212	0.029699	0.206076
C	1.795324	-0.000559	1.05889
C	-2.01946	0.799008	0.126127
C	-2.603994	1.838928	-0.022171
H	-2.45003	-1.595353	-1.15565
H	-1.630438	-2.596116	0.064009
H	-3.101452	-1.687059	0.495565
H	-1.045064	-0.575372	1.368182
H	0.4778	1.38595	-0.092581
H	2.125565	-0.691726	-1.606514
H	2.465813	1.068583	-1.570627
H	1.602868	-1.003245	1.464528
H	1.870033	0.721605	1.879889
H	-3.120893	2.758016	-0.150961
