19

O	3.507895	0.290208	-0.01525
C	2.289517	-0.338508	-0.37334
C	1.14756	-0.014849	0.595739
C	-0.131026	-0.773003	0.271505
C	-1.494605	-0.359554	0.936549
C	-2.181647	-1.140148	-0.234735
C	-1.030792	-0.360018	-0.956292
C	-1.468457	0.811936	-0.061002
O	-1.674707	1.984279	-0.11302
H	3.378142	1.242004	-0.078129
H	1.992644	-0.082236	-1.403038
H	2.497973	-1.414423	-0.359608
H	1.475785	-0.26512	1.611875
H	0.960179	1.067462	0.583081
H	0.022927	-1.857122	0.307938
H	-1.751714	-0.372494	1.993654
H	-2.039666	-2.222691	-0.19927
H	-3.208646	-0.871653	-0.486955
H	-0.776431	-0.374761	-2.013936
