19

O	-0.705414	1.896121	-0.223222
C	-0.630528	0.573749	-0.66179
C	-1.638502	-0.419354	-0.089864
O	-2.694497	-0.229176	0.449469
C	-0.604103	-1.54645	-0.071154
C	0.469187	-0.418698	-0.117421
C	1.19492	0.048695	1.170683
C	2.442299	0.363417	0.299413
C	1.833458	-0.504643	-0.836726
H	-1.4552	1.948104	0.383714
H	-0.616236	0.542357	-1.761532
H	-0.623265	-2.208894	0.796936
H	-0.62202	-2.146921	-0.986905
H	0.741927	0.885111	1.707213
H	1.36641	-0.777191	1.867045
H	2.483908	1.420418	0.026451
H	3.415534	0.061639	0.691415
H	1.8775	-0.115712	-1.858437
H	2.23035	-1.524764	-0.834721
