19

O	-2.277444	1.381779	0.091266
C	-1.995245	0.072813	0.47113
C	-1.946185	-1.025472	-0.588869
C	-0.688934	-0.493792	0.021621
C	0.47737	-1.119419	0.775606
C	1.301043	-0.077463	0.022757
C	2.652809	-0.154614	-0.59389
C	2.355333	0.857937	0.508479
O	0.163969	0.392592	-0.725266
H	-1.45148	1.740968	-0.264395
H	-2.380276	-0.182811	1.455854
H	-2.271378	-2.025573	-0.318545
H	-2.156469	-0.724869	-1.610296
H	0.451828	-1.019787	1.862919
H	0.696154	-2.154794	0.502808
H	3.280474	-1.009515	-0.363741
H	2.75557	0.226979	-1.604001
H	2.778598	0.695751	1.494571
H	2.267632	1.898747	0.215809
