19

C	-1.763265	-0.776808	-0.102989
C	-1.763233	0.776841	-0.103
C	-0.338247	1.173542	0.306559
O	0.54336	1.162103	-0.847479
C	1.341874	1.1e-05	-0.695895
C	1.700635	-6e-05	0.790979
C	0.212991	-4.4e-05	1.157279
C	-0.338275	-1.173556	0.306485
O	0.543303	-1.162026	-0.847577
H	-2.482409	-1.171346	0.622318
H	-2.007118	-1.208547	-1.075891
H	-2.00697	1.208565	-1.075939
H	-2.48243	1.17143	0.622224
H	-0.276719	2.160076	0.776236
H	2.122128	2.4e-05	-1.454756
H	2.237932	-0.897948	1.102777
H	2.237972	0.897781	1.102841
H	-0.073821	-7.3e-05	2.208047
H	-0.276738	-2.160128	0.776084
