19

C	-2.573952	-1.327103	-0.184948
C	-1.45143	-0.435494	0.318227
C	-0.052394	-1.002348	0.043366
C	1.008064	0.054882	0.409436
O	0.708199	1.283441	-0.255083
C	-0.585514	1.725236	0.071043
O	-1.586524	0.831873	-0.326901
C	2.358736	-0.360766	0.052359
C	3.460781	-0.745281	-0.229987
H	-2.537005	-2.304099	0.306196
H	-3.544579	-0.868259	0.021314
H	-2.486506	-1.475868	-1.265324
H	-1.560905	-0.284655	1.407822
H	0.116315	-1.916592	0.621355
H	0.044872	-1.242703	-1.019943
H	0.967463	0.226992	1.5006
H	-0.652383	1.903324	1.162636
H	-0.745842	2.656965	-0.474293
H	4.439425	-1.072378	-0.481466
