19

O	-2.489436	-0.883481	0.001735
C	-1.270834	-0.215918	-0.011127
C	-0.832545	0.825417	1.067871
C	0.223585	1.184824	-0.019353
C	-0.876464	0.85965	-1.074094
C	1.044654	-0.097951	-0.054306
C	2.393903	-0.234095	-0.599547
O	2.160629	-0.232663	0.818445
C	-0.06127	-1.167984	-0.056527
H	-3.194359	-0.229274	0.045832
H	-1.572381	1.619299	1.204582
H	-0.476676	0.45866	2.033786
H	0.765763	2.128274	-0.012406
H	-1.617673	1.659681	-1.155918
H	-0.567342	0.521055	-2.067035
H	2.718457	-1.187077	-1.01633
H	2.917173	0.640486	-0.985837
H	-0.066423	-1.795819	-0.951853
H	-0.002258	-1.809793	0.826236
