19

C	2.544895	-0.511424	-0.911199
C	1.332555	-0.256352	-0.064276
C	1.393526	0.130428	1.392722
C	0.74329	1.0668	0.399825
C	-0.651204	0.608551	-0.066439
O	-1.497888	1.514522	-0.656779
C	-1.149423	-0.661391	0.552983
O	-2.456069	-0.913369	0.086357
C	-0.078266	-0.737166	-0.527319
H	3.393496	0.091343	-0.571617
H	2.846923	-1.565626	-0.869609
H	2.355335	-0.262515	-1.961913
H	0.836161	-0.375372	2.172735
H	2.377399	0.456808	1.720361
H	1.103338	2.070143	0.211112
H	-2.3469	1.059063	-0.750082
H	-0.996967	-0.971856	1.585951
H	-2.510027	-1.830131	-0.202387
H	-0.239346	-1.317753	-1.428957
