19

O	-2.058633	-1.727914	0.126074
C	-1.997846	-0.549833	-0.120166
C	-0.993546	0.385064	0.518216
O	-1.081013	1.720099	-0.005153
C	0.281169	1.673446	-0.484522
C	0.48011	0.237588	0.049802
C	1.008366	-0.879441	-0.883362
C	2.367767	-0.812956	-0.135384
C	1.6463	-0.066202	1.019873
H	-2.66634	-0.055156	-0.860866
H	-1.11742	0.350186	1.610201
H	0.330757	1.786136	-1.575322
H	0.904294	2.444037	-0.013487
H	0.486875	-1.823288	-0.703804
H	1.00005	-0.673407	-1.957416
H	2.854087	-1.759831	0.106082
H	3.089754	-0.172432	-0.649045
H	1.33255	-0.751121	1.813365
H	2.148649	0.791404	1.476187
