19

C	1.845736	-1.471597	-0.522794
C	0.682353	-0.74939	0.11368
C	0.876152	0.041936	1.402129
C	0.525974	0.755417	0.124538
C	1.401249	1.769464	-0.55179
O	-0.858477	1.073185	-0.003646
C	-1.623409	-0.052715	-0.104336
O	-2.815825	-0.00967	-0.176269
C	-0.718701	-1.286387	-0.104318
H	1.975094	-2.466395	-0.081846
H	1.691384	-1.602882	-1.599878
H	2.784714	-0.928438	-0.382523
H	0.119507	-0.010991	2.17922
H	1.893492	0.139532	1.76721
H	1.269656	2.755619	-0.095702
H	2.45417	1.492256	-0.459509
H	1.154543	1.850281	-1.615065
H	-1.065365	-1.98978	0.658422
H	-0.8189	-1.787685	-1.073659
