19

O	1.096388	1.544062	0.539714
C	0.557423	0.555044	-0.322575
C	1.667512	-0.471433	-0.697382
O	1.2654	-1.288455	0.465104
C	-0.027503	-0.654031	0.395735
C	-1.14779	-1.168163	-0.536111
C	-1.731706	0.221517	-0.170031
C	-1.120045	-0.021545	1.280693
C	-0.727012	1.140466	-0.948964
H	1.676411	1.09607	1.168837
H	1.533256	-1.023548	-1.632791
H	2.697587	-0.117349	-0.605283
H	-0.918704	-1.366109	-1.586527
H	-1.69785	-2.004427	-0.099615
H	-2.795056	0.432154	-0.27073
H	-0.83871	0.842934	1.881722
H	-1.738468	-0.7225	1.844387
H	-0.831371	1.002805	-2.028107
H	-0.806679	2.203976	-0.718624
