19

C	-0.610987	1.933432	-0.770079
C	-1.221073	0.603808	-0.330629
O	-1.278361	0.456648	1.09577
C	0.018205	0.065904	1.538786
C	0.657844	-0.752094	0.367742
C	1.968772	-0.262599	-0.02679
C	3.049974	0.150143	-0.354747
C	-0.435952	-0.647621	-0.751247
O	-1.269972	-1.790602	-0.747404
H	-1.147269	2.760974	-0.297452
H	0.447629	2.008394	-0.507248
H	-0.694364	2.043773	-1.856028
H	-2.253553	0.531248	-0.685801
H	0.636513	0.93931	1.777295
H	-0.10723	-0.527494	2.447828
H	0.734588	-1.811134	0.630222
H	4.007423	0.507123	-0.643655
H	0.003961	-0.582397	-1.747327
H	-1.801734	-1.744004	0.057023
