19

O	3.037818	-0.788355	-0.229435
C	2.379511	0.339801	0.344808
C	0.906927	0.336181	0.078696
C	0.193804	1.306913	-0.507635
C	-1.257166	0.979671	-0.567527
C	-1.952222	0.806846	0.782641
C	-1.383706	-0.388637	0.066628
O	-2.256267	-1.320683	-0.497808
C	0.026473	-0.848495	0.441825
H	2.852257	-0.772416	-1.174475
H	2.581809	0.263356	1.420449
H	2.821458	1.286145	-0.003136
H	0.605521	2.243401	-0.869967
H	-1.864033	1.26605	-1.418675
H	-1.460234	1.193595	1.669805
H	-3.034449	0.88622	0.773987
H	-2.655104	-1.827105	0.218164
H	0.119674	-1.120754	1.501327
H	0.298972	-1.73987	-0.136155
