19

C	-2.906586	-0.293922	-0.368465
O	-1.847577	0.520875	0.082325
C	-0.766788	-0.205856	0.596398
C	0.466438	0.618345	1.022993
C	0.810193	1.373686	-0.277767
C	1.15356	0.082872	-1.045781
O	2.306789	-0.397102	-0.284677
C	1.336158	-0.698092	0.719622
C	0.217708	-0.963164	-0.316971
H	-3.31058	-0.920183	0.442396
H	-3.696869	0.368856	-0.728577
H	-2.595754	-0.955206	-1.190995
H	-1.102646	-0.879635	1.401315
H	0.496313	1.148181	1.972354
H	-0.040407	1.929526	-0.672096
H	1.68953	2.015292	-0.200323
H	1.314577	0.100875	-2.122138
H	1.666138	-1.352635	1.523628
H	0.041905	-1.928476	-0.786922
