19

C	-1.908382	-1.615014	0.1417
O	-0.828585	-1.118562	-0.624748
C	-0.187125	0.048223	-0.11734
C	0.633298	-0.244737	1.184412
C	2.077779	0.093013	0.779778
O	2.131898	-0.142202	-0.617372
C	0.936712	0.39947	-1.138083
C	-1.135846	1.155649	0.040812
C	-1.908011	2.06963	0.160651
H	-2.716028	-0.877431	0.231512
H	-2.281121	-2.494984	-0.387184
H	-1.598056	-1.918561	1.152027
H	0.284532	0.325801	2.04619
H	0.542653	-1.310609	1.405314
H	2.310539	1.146885	1.005888
H	2.828287	-0.538449	1.260792
H	1.011852	1.491732	-1.244313
H	0.729113	-0.054234	-2.108054
H	-2.588823	2.878555	0.263209
