19

C	2.294131	7e-06	0.365163
C	0.861545	-1.4e-05	0.965602
C	0.526198	1.079444	-0.112747
O	-0.794639	1.321586	-0.525096
C	-1.813838	0.781355	0.28568
C	-1.813787	-0.781383	0.285721
O	-0.794627	-1.321573	-0.525131
C	0.526215	-1.079439	-0.112787
C	1.356757	2.2e-05	-0.870981
H	2.885065	0.902936	0.530727
H	2.885078	-0.902919	0.530696
H	0.597485	-3.4e-05	2.023648
H	1.029137	2.044708	0.020126
H	-1.735868	1.15908	1.316039
H	-2.749907	1.161722	-0.132895
H	-1.735678	-1.159056	1.316086
H	-2.749878	-1.161831	-0.132732
H	1.029162	-2.044704	0.02005
H	1.636205	4.3e-05	-1.923848
