19

O	-3.187958	-0.04115	-0.138097
C	-2.084711	0.147887	0.304705
C	-0.791869	-0.231705	-0.391774
C	-0.079127	-1.372825	0.369171
C	1.361226	-1.502208	-0.122451
O	2.115065	-0.340589	0.192117
C	1.600507	0.850291	-0.332588
C	0.779816	1.706621	0.592392
C	0.114805	0.982898	-0.565865
H	-1.93739	0.630003	1.299112
H	-1.06619	-0.60138	-1.385887
H	-0.063854	-1.177288	1.448663
H	-0.624119	-2.309834	0.215791
H	1.874137	-2.328757	0.376708
H	1.375048	-1.696932	-1.206965
H	2.279828	1.329479	-1.033956
H	0.651937	1.316265	1.595732
H	0.862658	2.786099	0.533493
H	-0.172796	1.620507	-1.396394
