19

C	1.993033	1.020267	0.12059
O	2.853877	-0.05943	-0.288167
C	1.893652	-1.047738	0.147023
C	0.854566	0.042034	0.487856
C	-0.369877	0.07819	-0.423624
O	-1.159436	-1.097443	-0.21062
C	-2.501525	-0.747868	0.119419
C	-2.515566	0.754156	0.158206
C	-1.314392	1.221613	-0.159123
H	2.4115	1.587015	0.962335
H	1.786593	1.716038	-0.704137
H	1.615259	-1.738728	-0.657048
H	2.261813	-1.625688	1.003672
H	0.533371	0.066563	1.531258
H	-0.017066	0.085462	-1.470375
H	-3.193365	-1.15185	-0.637158
H	-2.77911	-1.20064	1.083817
H	-3.39724	1.332676	0.4034
H	-1.016631	2.260201	-0.227544
