19

C	-2.486146	-0.864341	0.001075
C	-1.068404	-0.520328	-0.459941
C	-0.886279	0.972039	-0.897469
C	0.256861	1.444876	0.017286
C	-0.049306	0.740334	1.345303
C	-0.001816	-0.650281	0.682269
C	1.344005	-0.545377	-0.02793
O	2.165247	-1.378653	-0.273394
O	1.465524	0.763612	-0.421055
H	-2.802699	-0.241538	0.844723
H	-3.2036	-0.706787	-0.810979
H	-2.556699	-1.911731	0.311442
H	-0.802676	-1.194115	-1.279861
H	-0.617676	1.079491	-1.950245
H	-1.793493	1.557584	-0.71633
H	0.462371	2.513832	0.030913
H	0.727946	0.895474	2.09733
H	-1.022674	1.006254	1.762797
H	-0.090459	-1.539662	1.302241
