19

O	2.749014	-0.885264	0.103665
C	2.102073	0.37449	0.199434
C	0.742618	0.257003	-0.491799
C	-0.008568	1.571616	-0.517917
C	-1.13204	1.546023	0.201332
C	-1.395171	0.195304	0.805897
C	-2.296451	-0.742448	-0.034276
O	-1.147243	-1.357485	-0.648413
C	-0.235816	-0.674709	0.244682
H	3.570852	-0.842817	0.600931
H	1.955339	0.67256	1.250521
H	2.693581	1.168308	-0.284137
H	0.915312	-0.140797	-1.499959
H	0.35954	2.435746	-1.061797
H	-1.812816	2.382343	0.321389
H	-1.590727	0.209875	1.880721
H	-2.87577	-1.462503	0.559782
H	-2.955902	-0.26668	-0.769644
H	0.266549	-1.377721	0.916051
