19

C	2.325259	-1.009074	-0.496435
C	1.026965	-0.244901	-0.672994
C	0.934883	1.217536	-0.19956
O	1.016708	0.73916	1.228997
C	0.038036	-0.12755	0.532102
C	-1.092292	-1.049748	0.892424
O	-2.02494	-0.77138	-0.17413
C	-1.710695	0.457975	-0.904502
C	-0.620002	1.11019	-0.072836
H	3.04245	-0.737829	-1.278716
H	2.771662	-0.793007	0.475778
H	2.153241	-2.088129	-0.572528
H	0.559547	-0.449885	-1.63911
H	1.554149	2.082997	-0.439439
H	-0.85309	-2.116961	0.858376
H	-1.523288	-0.803995	1.872524
H	-1.422203	0.193103	-1.927069
H	-2.624052	1.058048	-0.949516
H	-1.00549	1.786849	0.691568
