19

C	-2.640878	-1.233566	0.334451
C	-1.595416	-0.36067	-0.374835
C	-1.524228	1.050251	0.231295
O	-0.430872	1.783946	-0.283754
C	0.818258	1.240263	0.097878
C	0.881243	-0.254401	-0.094544
C	2.191213	-0.915098	-0.009567
O	3.2313	-0.338016	0.219481
C	-0.223913	-0.97369	-0.332909
H	-2.3887	-1.370744	1.391411
H	-3.632895	-0.773975	0.28051
H	-2.705219	-2.223972	-0.126808
H	-1.8896	-0.264107	-1.430911
H	-2.423803	1.624003	-0.009025
H	-1.455863	0.970991	1.330026
H	1.57987	1.728958	-0.516566
H	1.051424	1.488545	1.147605
H	2.163614	-2.016396	-0.173728
H	-0.139928	-2.049279	-0.488945
