19

C	3.49852	-0.451953	-0.373667
O	2.276371	-0.379237	0.322758
C	1.377334	0.550164	-0.23594
C	0.081545	0.506485	0.576057
C	-0.675114	-0.833422	0.468602
C	-2.063764	-0.484865	-0.089772
O	-2.956908	-1.26547	-0.321158
C	-2.09145	0.987184	-0.280541
C	-0.924428	1.525435	0.08791
H	4.027593	0.51409	-0.371546
H	4.118707	-1.19536	0.132488
H	3.354184	-0.761409	-1.420713
H	1.807916	1.566684	-0.216508
H	1.168131	0.30503	-1.292069
H	0.356261	0.724227	1.616402
H	-0.172524	-1.542599	-0.195307
H	-0.788024	-1.338008	1.432035
H	-2.960867	1.507457	-0.661727
H	-0.68294	2.583383	0.048253
