19

O	2.556695	-0.841367	0.153603
C	1.591773	0.089664	-0.258302
C	0.889076	1.024125	0.815559
C	-0.47281	0.741116	0.084821
O	-0.753962	1.723927	-0.906834
C	-1.735708	0.151274	0.752854
C	-1.918298	-1.233584	0.04977
C	-0.514278	-1.569127	-0.447799
C	0.215758	-0.462335	-0.501487
H	3.418562	-0.414881	0.131699
H	1.946126	0.701837	-1.09863
H	0.942481	0.560652	1.803172
H	1.217993	2.066866	0.856852
H	-0.994991	2.535831	-0.447617
H	-1.572235	-0.002875	1.824344
H	-2.603056	0.807285	0.634812
H	-2.288365	-1.995787	0.743906
H	-2.646328	-1.183187	-0.77062
H	-0.175125	-2.583022	-0.624571
