19

O	-1.618763	-1.734051	-0.169941
C	-1.25589	-0.540823	0.48181
C	-1.782802	0.80771	-0.107907
C	-0.325201	1.296579	-0.084759
O	0.196474	2.374049	-0.154418
C	0.202845	-0.112191	0.179845
C	1.44646	-0.320145	1.076434
C	2.300583	-0.51969	-0.203964
C	0.993279	-0.76138	-1.002216
H	-2.538396	-1.927803	0.036495
H	-1.435376	-0.602528	1.56467
H	-2.141091	0.675223	-1.134707
H	-2.51193	1.389883	0.460526
H	1.709984	0.510298	1.735775
H	1.358382	-1.236561	1.667726
H	2.791044	0.40895	-0.5044
H	3.038547	-1.324547	-0.198125
H	0.898369	-0.294349	-1.985136
H	0.733149	-1.818903	-1.083411
