19

C	-2.433266	-0.91031	0.2578
C	-1.491121	0.167352	-0.242847
O	-1.797028	1.338785	-0.253427
C	-0.135882	-0.305152	-0.730935
C	1.089467	0.665153	-0.769905
C	1.972451	-0.62257	-0.696341
C	0.821226	-1.066529	0.235757
O	0.922372	-0.17761	1.357209
C	1.153241	1.100311	0.70054
H	-2.05102	-1.299027	1.209224
H	-3.428841	-0.493149	0.414527
H	-2.481277	-1.75379	-0.439145
H	-0.256707	-0.847348	-1.674857
H	1.209532	1.429994	-1.533859
H	2.012026	-1.173604	-1.637143
H	2.963879	-0.538617	-0.245532
H	0.663298	-2.086518	0.582437
H	0.374038	1.810536	0.983347
H	2.13562	1.49259	0.986336
