19

O	-2.189207	-1.079612	0.196191
C	-1.149525	-0.471175	-0.548498
C	-1.309282	1.103237	-0.480219
C	0.025638	1.537328	0.224247
C	0.086246	0.457925	1.326296
C	0.241244	-0.468491	0.066912
O	1.347577	-1.369867	0.050167
C	2.212684	-0.207187	-0.206587
C	0.991451	0.670186	-0.631346
H	-2.035097	-2.030042	0.198021
H	-1.139138	-0.839566	-1.582968
H	-1.423363	1.544704	-1.473507
H	-2.187643	1.351486	0.120266
H	0.141277	2.603587	0.422881
H	0.987554	0.483513	1.937154
H	-0.798177	0.314769	1.947745
H	2.76706	0.087538	0.689347
H	2.911959	-0.422979	-1.01785
H	0.917877	0.771887	-1.716782
