19

C	-2.805958	1.5071	-0.234049
C	-1.992776	0.249894	-0.43098
C	-2.186684	-0.946208	0.429221
C	-0.913063	-0.120423	0.59278
C	0.348746	-0.698007	0.06909
O	0.375725	-1.449731	-0.886236
C	1.656619	-0.294184	0.752153
C	2.648913	0.254778	-0.264516
O	3.337079	1.221739	-0.074088
H	-2.26625	2.392479	-0.585553
H	-3.748784	1.447761	-0.788767
H	-3.052167	1.659804	0.821901
H	-1.692663	0.033783	-1.452365
H	-2.903684	-0.89309	1.241644
H	-2.051	-1.924018	-0.01854
H	-0.836096	0.510122	1.471115
H	1.532605	0.419673	1.568146
H	2.097494	-1.217163	1.153532
H	2.683338	-0.323107	-1.210719
