19

C	1.24841	1.765421	0.360459
C	0.603189	0.420623	0.036318
C	-0.160481	-0.242738	1.202717
C	-1.400039	-0.831255	0.535756
C	-2.490422	0.136732	0.114074
C	-1.423016	-0.277523	-0.859233
O	-0.353139	0.624427	-1.0246
C	1.678394	-0.510708	-0.54166
O	2.192399	-1.432177	0.035889
H	1.97046	1.657803	1.175295
H	1.767043	2.171662	-0.513512
H	0.475396	2.478567	0.660116
H	0.463587	-1.016945	1.654502
H	-0.410947	0.491954	1.974382
H	-1.665378	-1.861499	0.738619
H	-3.489442	-0.262862	-0.025888
H	-2.451165	1.154184	0.489855
H	-1.652113	-0.863676	-1.742904
H	1.942266	-0.250499	-1.591365
