19

C	3.264985	-0.228213	0.02127
O	1.923777	-0.66002	0.13927
C	1.053894	0.361093	0.482174
C	0.529558	1.300811	-0.604612
C	-0.354619	0.254781	0.00589
O	-0.808865	-0.883486	-0.739632
C	-2.002399	-0.915785	0.055385
C	-2.808722	0.329213	-0.135172
C	-1.623473	0.333981	0.816048
H	3.644247	0.179079	0.97096
H	3.859336	-1.102918	-0.252373
H	3.376485	0.5423	-0.754875
H	1.215922	0.790632	1.474829
H	0.364327	2.349243	-0.378605
H	0.869622	1.085674	-1.612617
H	-2.373543	-1.883863	0.367515
H	-2.760204	0.860696	-1.081145
H	-3.777446	0.337873	0.355376
H	-1.693381	0.574051	1.867927
