19

C	-2.594241	-0.624186	0.670031
C	-1.522717	-0.020394	-0.239706
C	-1.273301	1.464256	-0.066184
C	0.018463	1.779445	-0.165009
C	0.84724	0.542555	-0.434441
C	2.203679	0.444574	0.220127
O	2.656143	-0.592436	0.644008
C	-0.111432	-0.601277	-0.018301
O	0.073785	-1.810481	-0.717393
H	-2.645906	-1.707642	0.527154
H	-2.370628	-0.429158	1.724663
H	-3.58281	-0.206707	0.452939
H	-1.800897	-0.22017	-1.286423
H	-2.078572	2.174481	0.089287
H	0.437304	2.77828	-0.107936
H	1.04982	0.458502	-1.518387
H	2.795906	1.386043	0.272679
H	0.025525	-0.758897	1.063101
H	0.924683	-2.161231	-0.429109
