19

C	-2.250228	-0.185044	0.069782
O	-1.381512	-1.049077	-0.711885
C	-0.222574	-0.505453	-0.079328
C	0.94283	-1.398992	0.270368
C	2.070326	-0.3654	0.43078
O	1.806537	0.674652	-0.517236
C	0.411134	0.762671	-0.730227
C	-0.393174	1.664024	0.264226
C	-1.063767	0.402604	0.864973
H	-2.80198	0.523724	-0.560665
H	-2.962761	-0.775523	0.656293
H	0.78783	-2.004083	1.167127
H	1.140035	-2.06884	-0.574424
H	2.07827	0.038749	1.455403
H	3.065684	-0.76347	0.218131
H	0.221926	0.929479	-1.793729
H	0.267704	2.181568	0.963818
H	-1.066111	2.395877	-0.191229
H	-1.098082	0.291459	1.948806
