19

C	-3.515835	-0.3894	-0.191357
C	-2.073998	-0.273276	-0.022603
C	-0.880611	-0.185316	0.126939
C	0.573204	-0.07666	0.27521
C	0.944699	0.272606	1.738529
C	1.12165	0.996599	-0.69834
O	0.562344	2.270501	-0.451848
C	1.180375	-1.447719	-0.04661
O	2.065259	-1.629696	-0.839628
H	-3.80322	-0.292891	-1.243825
H	-3.874626	-1.36177	0.162889
H	-4.046197	0.385203	0.373003
H	0.518476	-0.449599	2.439655
H	2.032555	0.284167	1.85889
H	0.55763	1.265678	1.9739
H	2.200623	1.092487	-0.55473
H	0.951624	0.664934	-1.730916
H	-0.390844	2.188392	-0.575382
H	0.736253	-2.284052	0.537712
