19

O	2.818457	-0.971102	-0.224924
C	1.521906	-0.468907	-0.386863
C	1.234516	0.923084	0.121347
C	0.007441	1.687152	-0.3877
C	-1.230469	0.924804	0.103393
C	-1.526474	-0.460248	-0.402701
O	-2.836408	-0.952553	-0.397902
C	-0.758627	-0.304997	0.886534
C	0.754875	-0.303635	0.892487
H	3.381316	-0.555122	-0.886729
H	1.010142	-0.825646	-1.280011
H	2.09076	1.487756	0.475016
H	0.006078	2.694316	0.041799
H	0.012438	1.809748	-1.477904
H	-2.082593	1.506372	0.444745
H	-1.022547	-0.827401	-1.28955
H	-3.276446	-0.647028	0.401761
H	-1.257614	-0.613075	1.800337
H	1.263063	-0.624195	1.794162
