19

C	3.771206	-0.089833	0.10731
C	2.329906	0.032167	-0.053949
C	1.137038	0.108542	-0.201184
C	-0.305107	0.273556	-0.33323
C	-0.702755	1.608924	0.301061
O	-1.425274	2.419204	-0.214701
C	-1.097722	-0.898617	0.337915
C	-2.601899	-0.779616	0.096768
O	-0.598934	-2.153562	-0.083181
H	4.084744	-1.138963	0.074843
H	4.307191	0.443814	-0.685135
H	4.099181	0.324726	1.066772
H	-0.600951	0.324544	-1.389496
H	-0.261958	1.772249	1.309419
H	-0.890202	-0.868749	1.413906
H	-3.117241	-1.612584	0.581327
H	-3.006388	0.158956	0.485545
H	-2.825382	-0.813961	-0.976599
H	-0.779332	-2.245906	-1.025677
