19

C	-2.93602	-0.853898	0.237677
C	-1.572363	-0.265675	0.079164
C	-0.409942	-0.69761	0.563482
C	0.714644	0.23042	0.163296
C	1.488723	0.834181	1.334502
O	0.068015	1.251884	-0.606126
C	-1.333025	1.00884	-0.690235
C	1.651117	-0.535729	-0.784359
O	2.645828	-1.119631	-0.444608
H	-3.615949	-0.146342	0.7283
H	-3.379675	-1.088196	-0.738002
H	-2.911947	-1.771326	0.830276
H	-0.241904	-1.584648	1.161061
H	2.172732	1.605974	0.97082
H	0.799377	1.283082	2.05354
H	2.079386	0.059304	1.828833
H	-1.891028	1.858917	-0.265565
H	-1.637115	0.921249	-1.745037
H	1.296569	-0.519216	-1.839523
