19

C	2.713242	-0.513399	-0.000133
C	1.784897	0.70543	0.000176
C	0.323429	0.340523	1.3e-05
C	-0.778373	1.431326	-0.000584
C	-1.931388	0.441254	-0.000349
C	-1.372953	-0.762208	-0.75362
O	-0.043939	-0.466252	-1.12732
C	-1.373165	-0.761652	0.753977
O	-0.044291	-0.465388	1.12788
H	3.760432	-0.197831	0.000161
H	2.537375	-1.13158	0.883361
H	2.537664	-1.13094	-0.884126
H	1.970322	1.330226	0.880499
H	1.970504	1.330856	-0.87966
H	-0.736006	2.052856	0.896405
H	-0.735727	2.052103	-0.89808
H	-2.976945	0.714309	-0.000592
H	-1.907746	-1.427779	-1.414772
H	-1.908179	-1.426738	1.415439
