19

C	1.999924	-1.390764	-0.471654
C	1.459686	-0.287552	0.447596
C	0.079787	-0.64663	1.071255
C	-0.95396	-0.069769	0.106563
C	-2.40214	-0.248302	0.215128
O	-1.650701	-0.965997	-0.772145
C	-0.289942	1.092146	-0.573997
O	0.390163	1.951178	0.353452
C	1.158513	0.971299	-0.355808
H	2.221631	-2.296976	0.099924
H	1.267479	-1.651585	-1.242843
H	2.92212	-1.076867	-0.97243
H	2.194421	-0.075181	1.231818
H	-0.060771	-1.723303	1.192218
H	-0.030288	-0.17285	2.04981
H	-2.808128	-0.855283	1.023654
H	-3.076415	0.514173	-0.173279
H	-0.747199	1.564953	-1.43842
H	1.890249	1.368894	-1.055409
