19

C	-2.389326	0.189465	-0.300698
C	-0.915081	0.031896	-0.013483
O	-0.234515	-0.433832	-1.169079
C	1.041511	-0.835407	-0.654466
C	1.812436	0.477813	-0.41507
C	1.000835	1.350886	0.567662
O	-0.408802	1.322524	0.327099
C	0.67303	-1.499165	0.66666
C	-0.497304	-0.99556	1.043517
H	-2.817879	-0.773506	-0.587061
H	-2.906237	0.5671	0.58476
H	-2.527379	0.901319	-1.117768
H	1.528538	-1.48802	-1.38305
H	2.813779	0.304766	-0.004472
H	1.921698	0.978965	-1.381667
H	1.206799	1.022736	1.595169
H	1.29344	2.401369	0.489647
H	1.314907	-2.180472	1.210049
H	-1.037736	-1.163365	1.965503
