19

O	-3.145506	0.131452	-0.714484
C	-2.586338	-0.641381	0.012478
O	-1.296896	-0.601669	0.384664
C	-0.510984	0.46825	-0.124051
C	0.093668	1.41103	0.879199
C	0.949534	0.392585	0.17079
C	2.071809	0.597168	-0.856092
C	2.598879	-0.822453	-0.489463
C	1.661327	-0.835453	0.755268
H	-3.052939	-1.520317	0.483448
H	-0.870345	0.843713	-1.074432
H	0.176209	2.458781	0.606904
H	-0.134133	1.22577	1.924301
H	1.770295	0.765257	-1.893656
H	2.763926	1.39249	-0.562022
H	2.315285	-1.574633	-1.229333
H	3.669832	-0.911325	-0.297327
H	1.044656	-1.724094	0.90452
H	2.18906	-0.612391	1.687384
