19

C	-2.631247	-0.583116	-0.372516
C	-1.225414	-0.41644	0.099879
C	-0.755182	0.180746	1.390821
C	-0.209196	0.713298	0.069864
C	-0.266427	2.148667	-0.35863
C	0.732976	-0.345632	-0.528555
O	-0.256273	-1.383636	-0.356898
C	2.036789	-0.596629	0.195799
O	3.060669	-0.024283	-0.079397
H	-3.06238	-1.506359	0.03105
H	-3.251505	0.252142	-0.035205
H	-2.675886	-0.636203	-1.464603
H	-1.454597	0.860321	1.869346
H	-0.152448	-0.403217	2.079473
H	0.588458	2.712029	0.032522
H	-0.255564	2.241273	-1.450167
H	-1.176211	2.631751	0.012017
H	0.937064	-0.16002	-1.590288
H	1.9741	-1.333739	1.026241
