19

C	-2.594429	0.680737	0.965579
C	-2.044194	0.053573	-0.320651
C	-0.940962	-0.937835	-0.043423
O	-0.128487	-1.342672	-1.145579
C	0.493056	-0.581553	-0.130096
C	1.689126	-1.010895	0.737679
C	2.188571	0.468459	0.747453
C	1.087041	0.812866	-0.281687
O	0.824718	1.773155	-0.946272
H	-2.971738	-0.082566	1.655158
H	-1.821906	1.252714	1.489914
H	-3.419079	1.362898	0.742062
H	-2.847859	-0.468667	-0.855049
H	-1.657872	0.825449	-0.992446
H	-1.188237	-1.753545	0.640895
H	1.442732	-1.44177	1.709362
H	2.362112	-1.68703	0.2058
H	2.055878	0.993654	1.697544
H	3.206863	0.642879	0.39245
