19

C	-1.275431	1.908367	0.132709
C	-0.970949	0.446693	-0.050595
C	-1.564713	-0.759652	0.753502
C	-0.552218	-1.395286	-0.24442
C	-1.146719	-0.442872	-1.31808
C	0.439302	-0.24811	0.175806
O	0.909364	-0.261541	1.486521
C	1.578695	0.096984	-0.746385
O	2.686463	0.32556	-0.309021
H	-0.953885	2.240611	1.125184
H	-0.762578	2.523757	-0.614498
H	-2.350606	2.097759	0.043806
H	-1.317991	-0.815994	1.811682
H	-2.619235	-0.977394	0.562399
H	-0.300428	-2.450294	-0.354633
H	-0.564019	-0.213866	-2.211247
H	-2.183973	-0.652679	-1.588869
H	1.851737	-0.03638	1.422511
H	1.386558	0.135583	-1.83156
