19

C	1.351256	0.593738	1.463103
C	1.104378	-0.016271	0.101786
C	2.091293	-0.937795	-0.482515
O	2.004079	0.418809	-0.924553
C	-0.349759	-0.145792	-0.36593
C	-1.141912	-1.201868	0.447623
O	-2.4451	-1.389644	-0.05499
C	-1.063391	1.13057	-0.332574
C	-1.700823	2.14928	-0.271896
H	0.923925	-0.02336	2.260137
H	2.425054	0.690864	1.637947
H	0.897375	1.587068	1.524041
H	2.988231	-1.191522	0.080844
H	1.776277	-1.68713	-1.208338
H	-0.321373	-0.495066	-1.404881
H	-0.633738	-2.16758	0.365611
H	-1.154998	-0.914486	1.509591
H	-2.88034	-0.528313	-0.042856
H	-2.2385	3.065028	-0.243337
