19

C	-1.437976	1.445126	1.092643
C	-1.019572	0.643657	-0.159714
C	-1.870917	-0.53241	-0.345885
C	-2.581973	-1.491633	-0.484011
C	0.464146	0.268208	-0.121901
C	0.915462	-0.724554	0.944557
O	2.257472	-1.115477	0.756346
C	1.447325	1.196523	-0.691659
O	1.053877	0.008942	-1.404149
H	-2.472914	1.781338	0.996376
H	-1.368482	0.834264	1.996337
H	-0.795534	2.322272	1.214214
H	-1.144472	1.288832	-1.03849
H	-3.206637	-2.33977	-0.619427
H	0.849218	-0.266872	1.937232
H	0.233191	-1.587866	0.928256
H	2.337046	-1.325505	-0.183723
H	1.113124	2.130712	-1.140098
H	2.465694	1.185367	-0.312441
