19

C	-3.33748	0.085633	-0.246229
C	-1.980752	0.110731	0.431819
O	-0.994877	-0.271501	-0.536206
C	0.281058	-0.284307	-0.047616
C	0.822477	-1.454946	0.777527
C	1.496862	-1.12282	-0.512516
C	2.448774	0.060646	-0.280852
C	1.194173	0.90289	0.092368
O	1.001714	2.079444	0.21736
H	-4.118991	0.371524	0.46394
H	-3.359633	0.784769	-1.086621
H	-3.561516	-0.915688	-0.625194
H	-1.746792	1.113073	0.812228
H	-1.949581	-0.588731	1.280597
H	1.33365	-1.3024	1.724524
H	0.148851	-2.305957	0.753987
H	1.523968	-1.79551	-1.358662
H	3.215612	-0.072108	0.487725
H	2.909069	0.460526	-1.188751
