19

C	-1.876684	-0.456319	1.214854
C	-0.961132	-0.300219	0.004047
C	-1.069173	-1.516227	-0.911304
C	-0.826669	1.083905	-0.716471
C	-0.082925	1.6904	0.494071
C	0.511409	0.289635	0.166394
O	0.49042	0.660388	-1.255259
C	1.709793	-0.381893	0.742329
O	2.654849	-0.763502	0.102565
H	-1.629357	-1.373249	1.760754
H	-1.83984	0.372608	1.922881
H	-2.91499	-0.556945	0.878961
H	-2.097343	-1.621745	-1.276026
H	-0.399867	-1.425979	-1.765698
H	-0.824332	-2.433804	-0.365385
H	-1.511532	1.56503	-1.416298
H	0.585996	2.511757	0.238033
H	-0.608087	1.851959	1.433958
H	1.649489	-0.520404	1.846857
