19

C	3.189417	1.450361	0.010253
C	2.288462	0.324188	0.442386
O	2.566442	-0.973236	-0.107607
C	1.34424	-0.328705	-0.471321
C	0.090345	-1.005556	0.02126
O	-0.981119	-0.096191	-0.129046
C	-2.225524	-0.665967	0.228689
C	-3.29283	0.307307	0.040925
C	-4.192552	1.088962	-0.10425
H	3.368888	1.411833	-1.067463
H	2.737026	2.416862	0.256308
H	4.155986	1.389889	0.521062
H	2.043076	0.299718	1.505873
H	1.298455	0.022218	-1.503089
H	-0.093502	-1.923286	-0.563399
H	0.218969	-1.307833	1.073197
H	-2.428135	-1.562671	-0.382094
H	-2.208795	-0.999841	1.280476
H	-4.983894	1.784991	-0.235302
