19

C	-2.110028	0.044774	-0.260704
C	-1.131805	0.404754	0.882244
O	-0.424515	-0.839966	1.066853
C	-0.023407	-1.146014	-0.27999
O	1.369827	-1.081082	-0.425909
C	1.946895	0.032647	0.25708
C	1.224965	1.35346	-0.053335
C	-0.283942	1.169545	-0.181007
C	-0.771273	-0.038079	-1.046701
H	-2.695655	-0.867251	-0.125483
H	-2.74033	0.873386	-0.590283
H	-1.424023	0.809961	1.849762
H	-0.310171	-2.169838	-0.53434
H	1.934076	-0.159614	1.335039
H	2.98805	0.068891	-0.073409
H	1.470309	2.091276	0.719935
H	1.589681	1.759111	-1.005215
H	-0.781582	2.0967	-0.47609
H	-0.70128	-0.060754	-2.132988
