19

C	2.718505	-0.62421	0.835311
C	1.998245	-0.712352	-0.522284
C	0.548383	-0.356443	-0.428902
C	-0.55238	-1.095165	-0.577907
C	-1.776745	-0.250189	-0.36397
C	-2.679701	-0.704417	0.780442
O	-1.257065	1.058988	-0.085347
C	0.111125	1.035372	-0.118091
O	0.782476	2.011761	0.076564
H	2.63776	0.385825	1.24393
H	2.284917	-1.324651	1.55607
H	3.77915	-0.866076	0.721443
H	2.480402	-0.017946	-1.220881
H	2.1014	-1.718393	-0.942264
H	-0.608677	-2.150756	-0.814991
H	-2.367155	-0.175905	-1.288187
H	-2.110562	-0.773589	1.711444
H	-3.497786	0.006576	0.919718
H	-3.107329	-1.686654	0.556395
