19

C	0.216481	0.122754	1.780993
C	0.508599	0.051015	0.292782
C	1.808229	0.734614	-0.197467
C	2.222819	-0.682908	-0.635641
O	1.00807	-1.254186	-0.101185
C	-0.716385	0.417036	-0.583461
O	-1.058137	1.79277	-0.422592
C	-1.858572	-0.464236	-0.343106
C	-2.817927	-1.150677	-0.111024
H	1.108489	-0.145312	2.352941
H	-0.079179	1.138708	2.063651
H	-0.588054	-0.567728	2.049247
H	1.676332	1.472414	-0.989787
H	2.415695	1.169055	0.597915
H	2.306394	-0.840993	-1.717874
H	3.113974	-1.097277	-0.150394
H	-0.403455	0.310193	-1.628975
H	-1.668975	1.857016	0.318859
H	-3.660144	-1.770329	0.076187
