19

O	3.618424	-0.103262	-0.402687
C	2.513416	-0.381745	-0.011104
C	1.466301	0.638251	0.38407
C	0.075638	0.299454	-0.154799
C	-0.947581	1.417494	0.077197
C	-2.342303	0.903624	-0.167347
C	-2.603861	-0.399174	-0.232347
C	-1.536755	-1.435001	-0.015762
O	-0.33574	-0.893268	0.50495
H	2.184402	-1.438171	0.090576
H	1.402652	0.647557	1.481312
H	1.79356	1.627124	0.051094
H	0.136626	0.107947	-1.240693
H	-0.852326	1.804874	1.101619
H	-0.728293	2.259529	-0.59143
H	-3.135113	1.634348	-0.301216
H	-3.603993	-0.767289	-0.444196
H	-1.869435	-2.183017	0.713675
H	-1.338683	-1.978083	-0.958291
