19

O	-1.924226	0.824587	-0.873889
C	-0.83167	0.369478	-0.109321
C	-1.168767	-0.437083	1.169922
O	-0.466073	-1.593879	0.684693
C	-0.152276	-0.955091	-0.575477
C	1.348475	-0.936952	-0.839355
C	2.066357	0.03273	0.064401
C	1.498459	1.16254	0.483187
C	0.101882	1.563572	0.082421
H	-2.55226	0.100369	-0.970085
H	-0.744249	-0.06186	2.108925
H	-2.243869	-0.622313	1.307903
H	-0.690121	-1.435119	-1.406238
H	1.73343	-1.954886	-0.710816
H	1.522062	-0.673634	-1.893454
H	3.084736	-0.207131	0.356247
H	2.052941	1.850414	1.11501
H	-0.338928	2.245962	0.817857
H	0.123892	2.117363	-0.866444
