19

C	1.361319	1.771025	0.433252
C	0.631439	0.812835	-0.491843
O	-0.725388	1.235691	-0.707451
C	-1.502115	0.037403	-0.465904
O	-0.662985	-1.001231	-0.906081
C	0.430734	-0.675943	-0.010662
C	1.596974	-1.616084	-0.170567
C	-0.292692	-0.59887	1.330718
C	-1.52084	-0.163464	1.047639
H	0.867756	1.832898	1.406031
H	2.399963	1.453839	0.578633
H	1.375286	2.773179	-0.004608
H	1.136245	0.765945	-1.466222
H	-2.435491	0.087395	-1.02286
H	1.301391	-2.639151	0.077004
H	1.964827	-1.600701	-1.200562
H	2.416834	-1.325196	0.493403
H	0.169898	-0.754408	2.295781
H	-2.318646	0.129103	1.71584
