19

C	-1.611035	0.192597	-1.012538
C	-1.74623	-1.026831	-0.055475
C	-0.840426	-0.298828	0.977749
C	-0.987138	1.011252	0.158139
O	0.288048	1.613077	-0.014404
C	1.314747	0.710803	0.338471
C	1.846445	-0.200283	-0.785312
O	1.078431	-1.322301	-0.290937
C	0.661095	-0.58596	0.885426
H	-0.89688	0.020976	-1.819541
H	-2.534183	0.592211	-1.438612
H	-2.762457	-1.164536	0.320075
H	-1.366985	-1.977622	-0.4296
H	-1.170948	-0.2867	2.018431
H	-1.659025	1.771227	0.565249
H	2.061536	1.239816	0.934826
H	1.567727	0.091024	-1.803168
H	2.924219	-0.401285	-0.738325
H	1.080414	-1.02782	1.794641
