19

C	2.203549	-0.701928	-0.011308
C	0.724126	-0.384472	0.065241
C	-0.193915	-1.597303	0.276844
O	-1.453712	-1.201747	-0.289687
C	-1.354858	0.190788	-0.418647
O	-1.160773	0.769053	0.884988
C	0.276752	0.879922	0.894355
C	0.530427	1.748572	-0.356732
C	0.027331	0.467276	-1.060879
H	2.544239	-1.176661	0.916273
H	2.4108	-1.397117	-0.832299
H	2.817973	0.18946	-0.164437
H	0.164641	-2.48895	-0.250151
H	-0.315495	-1.842695	1.339524
H	-2.264525	0.570749	-0.881405
H	0.631924	1.110887	1.898358
H	-0.068373	2.657943	-0.438345
H	1.581553	1.960293	-0.558224
H	0.132669	0.260505	-2.124936
