19

C	2.613484	-0.0024	-0.407584
C	1.156648	-0.001681	-0.044622
O	0.74534	1.212341	0.573283
C	-0.625486	1.423024	0.241913
C	-1.138823	0.034258	-0.134328
O	-2.40619	0.105897	-0.708081
C	-0.874617	-0.960119	1.042675
C	0.481575	-1.28332	0.412774
C	0.082498	-0.585695	-0.895963
H	2.900729	-0.957931	-0.855288
H	2.835266	0.797629	-1.120405
H	3.228552	0.157123	0.483949
H	-1.139895	1.843462	1.111733
H	-0.729217	2.114696	-0.607512
H	-2.718465	-0.78991	-0.870914
H	-0.896208	-0.556383	2.060674
H	-1.554125	-1.816898	0.977785
H	1.041277	-2.202865	0.545681
H	0.147212	-0.879231	-1.936505
