19

C	-2.319995	-0.90625	0.116552
C	-0.907202	-0.449066	-0.022958
O	-0.139317	-0.945336	-1.128835
C	0.750254	0.218223	-1.04578
C	2.015092	-0.199845	-0.3054
C	1.46381	-0.703028	1.060792
C	0.055804	-0.108251	1.128559
C	-0.18477	0.867391	0.00844
O	-0.528534	2.189526	0.183439
H	-2.813437	-0.369235	0.931824
H	-2.88019	-0.729462	-0.807581
H	-2.364208	-1.978105	0.339611
H	0.876942	0.696777	-2.019859
H	2.573755	-0.966734	-0.848927
H	2.669018	0.670925	-0.176026
H	1.437107	-1.79589	1.096451
H	2.078895	-0.363094	1.898639
H	-0.419599	0.095218	2.08236
H	-1.053444	2.471029	-0.574555
