19

C	0.456181	-1.691326	-0.862412
C	0.723085	-0.485163	0.027028
C	1.461434	-0.860406	1.3003
O	1.464372	0.524885	-0.764038
C	0.351017	1.393157	-0.782535
C	-0.011586	1.870937	0.564834
C	-0.47902	0.474095	0.136494
C	-1.902893	0.137819	0.093816
O	-2.359818	-0.979511	0.180559
H	-0.196447	-2.405682	-0.356374
H	-0.029263	-1.386638	-1.792725
H	1.405431	-2.176109	-1.109819
H	2.423873	-1.318935	1.052508
H	1.652489	0.008611	1.933463
H	0.87323	-1.585102	1.871751
H	0.083132	1.872044	-1.718051
H	0.750474	1.972409	1.330215
H	-0.816927	2.598784	0.612336
H	-2.571729	1.02294	-0.020618
