19

C	3.231995	-0.513386	0.051424
O	1.821324	-0.749391	0.041361
C	1.054329	0.363862	-0.016108
O	1.513344	1.483089	-0.054892
C	-0.38782	0.061676	-0.025036
C	-0.955758	-1.149843	-0.034649
C	-2.458064	-1.068241	-0.096228
C	-2.746228	0.427237	0.204004
C	-1.416161	1.170894	-0.0805
H	3.518854	0.087691	0.918449
H	3.697909	-1.497965	0.099518
H	3.544011	0.013034	-0.854578
H	-0.407316	-2.083955	-0.035483
H	-2.808538	-1.364933	-1.095666
H	-2.948801	-1.748396	0.608981
H	-3.58333	0.820005	-0.377614
H	-3.007714	0.538872	1.260859
H	-1.409137	1.644072	-1.071082
H	-1.207047	1.9688	0.637423
