19

C	2.781233	-1.124994	-0.244383
C	1.52063	-0.284601	-0.445359
C	0.29788	-0.889671	0.25646
O	-0.85305	-0.180545	-0.15605
C	-2.032414	-0.634389	0.483169
C	-3.178752	0.130064	0.012008
C	-4.140014	0.745995	-0.359357
C	1.714672	1.159452	-0.006714
O	2.77144	1.629259	0.333463
H	2.659987	-2.122177	-0.677083
H	3.640634	-0.640973	-0.711949
H	3.013229	-1.23654	0.819533
H	1.261235	-0.237198	-1.514217
H	0.210129	-1.957055	-0.005096
H	0.4166	-0.833253	1.352566
H	-2.190068	-1.707035	0.278311
H	-1.94017	-0.532197	1.57779
H	-4.986826	1.294348	-0.691405
H	0.788718	1.771239	-0.022694
