19

C	3.262515	0.710672	0.020146
C	2.054273	-0.067031	0.473892
O	1.676888	-1.194615	-0.321957
C	0.786274	-0.065769	-0.270741
C	-0.528743	-0.310278	0.402633
C	-1.562205	0.851371	0.468637
C	-2.699522	-0.179276	0.655086
C	-1.764689	-0.648675	-0.482877
O	-1.74825	0.743161	-0.999925
H	3.233308	0.874675	-1.060253
H	3.305584	1.683424	0.521939
H	4.182701	0.167455	0.259664
H	2.000153	-0.256395	1.548669
H	0.731525	0.507154	-1.194186
H	-0.413625	-0.910356	1.310122
H	-1.453463	1.852405	0.887401
H	-2.726629	-0.762195	1.579007
H	-3.682251	0.161853	0.329436
H	-1.893821	-1.452466	-1.2074
