19

O	-2.922253	1.504306	0.083424
C	-2.21779	0.426821	-0.456762
C	-2.631989	-0.994586	-0.126461
C	-1.405749	-0.395551	0.499469
O	-0.179636	-0.912723	0.094522
C	0.891845	0.000769	0.254739
C	2.163792	-0.702229	-0.230282
C	3.342512	0.144157	-0.107118
C	4.298253	0.863835	0.005976
H	-3.782208	1.545071	-0.348271
H	-1.782546	0.587067	-1.443377
H	-3.49682	-1.13508	0.512389
H	-2.480697	-1.751383	-0.887938
H	-1.467317	-0.105706	1.549254
H	0.714373	0.916887	-0.326159
H	0.999351	0.292636	1.31014
H	2.295162	-1.625451	0.346413
H	2.01989	-1.00562	-1.274138
H	5.150678	1.489615	0.100747
