19

C	-1.159144	-0.845437	-1.001032
C	-1.826012	0.314907	-0.259747
C	-0.780615	1.250941	0.254138
O	0.39274	1.494365	-0.468165
C	1.58251	0.965424	0.102402
C	1.807546	-0.497269	-0.275403
O	0.976473	-1.431396	0.38892
C	-0.415775	-1.223167	0.331061
C	-1.022776	-0.00397	1.032003
H	-1.846696	-1.628871	-1.322938
H	-0.536782	-0.545388	-1.846259
H	-2.864357	0.607087	-0.352767
H	-1.171891	2.148539	0.731861
H	2.407119	1.560515	-0.306971
H	1.581829	1.080477	1.194488
H	1.708784	-0.589788	-1.367606
H	2.831565	-0.78275	-0.008499
H	-0.843562	-2.140629	0.741802
H	-1.334107	0.018487	2.070314
