19

C	-2.0132	-1.239951	0.514808
C	-0.824247	-0.447692	0.008541
C	0.450609	-1.250252	-0.237851
C	1.604869	-0.270019	-0.003503
O	2.71874	-0.367313	-0.444057
C	1.100967	0.855932	0.914376
C	-0.42081	0.867566	0.766845
C	-0.961393	1.578155	-0.487481
O	-1.168396	0.328083	-1.175906
H	-1.773001	-1.748409	1.454811
H	-2.871201	-0.582808	0.685004
H	-2.307218	-1.997697	-0.218857
H	0.553629	-2.071991	0.483635
H	0.490144	-1.677407	-1.242118
H	1.399396	0.597339	1.938763
H	1.59074	1.801597	0.668028
H	-0.951545	1.078441	1.695775
H	-1.901606	2.125324	-0.342462
H	-0.252863	2.22702	-1.017291
