19

C	2.242865	-0.076908	0.203309
C	1.195173	0.84359	-0.385906
C	0.192391	1.487211	0.549261
O	-1.164562	1.496578	0.106087
C	-1.671961	0.397528	-0.61751
C	-1.331991	-1.012131	-0.125468
O	-0.585983	-1.161129	1.08491
C	0.051535	-1.5135	-0.149571
C	1.152763	-0.644198	-0.666556
H	3.25307	-0.044499	-0.188776
H	2.176312	-0.267234	1.269563
H	1.506825	1.460782	-1.223559
H	0.245557	1.008153	1.530229
H	0.447343	2.545513	0.675149
H	-2.758972	0.525996	-0.586169
H	-1.374461	0.45178	-1.678787
H	-2.144581	-1.732215	-0.237628
H	0.213594	-2.586572	-0.263054
H	1.45502	-0.934848	-1.670305
