19

C	-3.218265	-0.67429	0.105936
C	-1.898945	-0.238724	-0.496062
O	-1.658119	1.188825	-0.262581
C	-0.532257	0.8747	0.551194
C	0.537086	0.180431	-0.248361
C	1.851703	-0.046293	0.415211
C	3.117481	0.399722	-0.179296
O	2.74296	-0.979035	-0.209517
C	-0.644792	-0.606192	0.298096
H	-4.044865	-0.141675	-0.373553
H	-3.367937	-1.749391	-0.043356
H	-3.24441	-0.462177	1.178767
H	-1.863102	-0.464517	-1.569677
H	-0.360354	1.469011	1.442104
H	0.584124	0.381144	-1.316786
H	1.811356	-0.14224	1.502583
H	3.10427	0.908812	-1.142374
H	3.963854	0.644044	0.461602
H	-0.533729	-1.457453	0.957165
