19

C	2.400307	0.470153	0.882577
C	1.208238	0.122263	0.034383
C	0.353749	1.216863	-0.599419
C	-1.048729	0.605158	-0.726393
O	-1.877478	0.90746	0.425713
C	-2.01757	-0.487839	0.760854
C	-1.000455	-0.896069	-0.32036
C	0.410055	-1.111021	0.173007
O	1.378233	-0.985735	-0.874518
H	3.130137	1.047698	0.304464
H	2.099067	1.076815	1.742882
H	2.894517	-0.43489	1.244571
H	0.299447	2.111049	0.029281
H	0.771795	1.504014	-1.569981
H	-1.563388	0.862098	-1.658066
H	-1.740458	-0.693311	1.802727
H	-3.039042	-0.849566	0.586643
H	-1.317286	-1.64676	-1.045898
H	0.625606	-1.867989	0.925915
