19

C	2.918991	-0.579563	-0.007275
O	1.827602	-0.172878	-0.820707
C	0.701227	0.135182	-0.096658
C	0.494166	1.419861	0.657758
C	-0.423403	1.057876	-0.498785
C	-1.447437	-0.062229	-0.098589
C	-2.789772	-0.286294	-0.709284
O	-1.24802	-0.397535	1.290285
C	-0.362363	-0.952017	0.304767
H	2.675776	-1.476759	0.578871
H	3.748629	-0.807751	-0.679761
H	3.218523	0.218478	0.685083
H	0.123789	1.433302	1.67498
H	1.217764	2.188781	0.404074
H	-0.512283	1.664942	-1.389782
H	-3.207298	-1.237828	-0.369911
H	-3.483525	0.514785	-0.429467
H	-2.718124	-0.301978	-1.801749
H	-0.248357	-2.029555	0.259429
