19

C	-3.256237	-0.511615	0.414554
C	-1.746416	-0.524706	0.670715
C	-0.914042	0.004273	-0.51381
O	-1.244328	1.356622	-0.828553
C	0.554181	-0.028261	-0.216248
C	1.470483	-0.929153	-0.659509
O	2.701628	-0.662569	-0.147386
C	2.567453	0.441838	0.635229
C	1.282017	0.874388	0.635345
H	-3.800476	-0.947755	1.257257
H	-3.637474	0.507789	0.285379
H	-3.516619	-1.087888	-0.481218
H	-1.509947	0.076468	1.556393
H	-1.414862	-1.547508	0.884389
H	-1.109458	-0.644502	-1.384691
H	-2.180094	1.387125	-1.050233
H	1.409321	-1.782347	-1.315265
H	3.470571	0.790319	1.108451
H	0.885997	1.735276	1.149397
