19

C	-3.194374	0.343294	0.312842
C	-1.940778	-0.075578	-0.433602
O	-0.837261	0.628493	0.12809
C	0.392503	0.351411	-0.520335
C	1.371704	1.367309	-0.151536
C	2.218495	2.164269	0.150885
C	0.932713	-1.061265	-0.136264
C	1.001869	-1.361671	1.343817
O	1.257164	-1.839218	-0.998187
H	-4.068608	-0.167995	-0.100669
H	-3.115072	0.09105	1.374069
H	-3.347927	1.422497	0.227627
H	-1.78765	-1.16343	-0.356211
H	-2.023732	0.163185	-1.505617
H	0.265303	0.337926	-1.613378
H	2.956356	2.883141	0.410233
H	0.0449	-1.135984	1.821796
H	1.278155	-2.404694	1.498777
H	1.746252	-0.706508	1.809301
