19

O	1.0759	1.687509	-0.922744
C	0.268299	0.856091	-0.1796
C	-0.389729	0.947147	1.18524
C	0.099401	-0.45629	1.554128
C	0.499587	-0.675567	0.067349
O	1.802321	-1.172665	-0.082717
C	-0.612495	-1.381843	-0.720951
C	-1.833072	-0.436807	-0.552381
C	-1.212035	0.898159	-0.121358
H	1.965321	1.626453	-0.553315
H	-0.495991	1.789203	1.85892
H	0.993793	-0.420825	2.181016
H	-0.616769	-1.166368	1.982551
H	1.964273	-1.293323	-1.02538
H	-0.320991	-1.446669	-1.778275
H	-0.796444	-2.398846	-0.361819
H	-2.390356	-0.327936	-1.487101
H	-2.537012	-0.815687	0.19618
H	-1.711337	1.829901	-0.363657
