19

O	-2.680244	-0.473336	-0.133139
C	-1.376794	-0.545236	0.40077
C	-0.718722	0.822902	0.659222
C	-0.228501	0.864611	-0.832927
C	1.106206	1.46559	-0.37036
C	0.838787	0.624868	0.904821
C	0.97797	-0.820498	0.355985
O	2.18557	-1.10356	-0.325989
C	-0.208159	-0.714815	-0.615095
H	-2.696736	0.214674	-0.807324
H	-1.437764	-1.275262	1.213643
H	-1.222912	1.649325	1.161006
H	-0.806802	1.264319	-1.665776
H	2.017034	1.260734	-0.934889
H	1.002873	2.538033	-0.181326
H	1.308176	0.855842	1.862237
H	0.798311	-1.577681	1.132126
H	2.905183	-1.068726	0.313174
H	-0.254695	-1.430625	-1.434351
