19

O	2.019571	-0.01867	-1.297535
C	1.306012	-0.064627	-0.342324
C	0.566275	-1.161329	0.437247
C	-0.760445	-1.600236	-0.198773
C	-1.833474	-0.493745	-0.188657
C	-1.386217	0.873439	-0.744385
C	-0.47001	1.693309	0.188348
C	0.755061	0.92813	0.691092
O	0.377806	-0.2093	1.516988
H	1.180519	-2.015694	0.742934
H	-0.546751	-1.926014	-1.225365
H	-1.146207	-2.475993	0.33423
H	-2.687978	-0.851739	-0.773361
H	-2.189895	-0.360803	0.838253
H	-0.888842	0.730609	-1.713049
H	-2.277287	1.475821	-0.952096
H	-0.128504	2.596592	-0.331005
H	-1.032643	2.022234	1.070607
H	1.475357	1.579099	1.197942
