19

C	2.917414	-0.787212	0.266345
C	2.120222	0.401851	-0.275592
C	0.684672	0.453176	0.2348
C	-0.089027	1.689313	-0.219824
C	-1.544266	1.532171	0.113903
C	-2.079426	0.31764	0.252813
C	-1.300127	-0.910359	-0.026334
O	-1.799796	-1.998445	-0.153811
O	0.038446	-0.758837	-0.213206
H	3.932986	-0.791756	-0.139635
H	2.9945	-0.746589	1.358515
H	2.435199	-1.729965	-0.002045
H	2.60884	1.343988	0.00261
H	2.093481	0.370477	-1.371631
H	0.685769	0.433066	1.335108
H	0.327776	2.575796	0.271041
H	0.03525	1.846853	-1.301307
H	-2.154668	2.424463	0.224506
H	-3.1251	0.152445	0.482299
