19

C	0.793569	2.110696	0.392476
C	0.368149	0.691213	0.088044
C	-0.590546	0.485121	-1.126635
C	-1.622021	-0.133733	-0.163813
O	-2.784638	-0.402057	-0.265221
C	-0.633447	-0.144012	0.996556
C	0.356095	-1.356244	0.907932
C	1.411201	-0.457097	0.2286
O	1.960269	-1.027418	-0.937781
H	1.463245	2.497891	-0.38584
H	-0.068271	2.785159	0.445428
H	1.324127	2.173415	1.349053
H	-0.941741	1.402533	-1.608199
H	-0.210897	-0.195436	-1.894165
H	-0.976575	0.146775	1.98983
H	0.648491	-1.779195	1.869889
H	0.012361	-2.167683	0.262127
H	2.203211	-0.164213	0.933369
H	2.642998	-0.439109	-1.276433
