19

C	-1.846054	-0.867069	1.073327
C	-0.872775	-0.072463	0.214661
C	-1.359029	1.198118	-0.249095
C	-1.792415	2.251249	-0.640184
C	0.072272	-0.841955	-0.723142
O	0.031036	-2.234572	-0.75561
C	0.630581	-0.222438	0.509514
C	1.598062	0.936764	0.425245
O	2.878029	0.549707	-0.054294
H	-1.452643	-1.867514	1.265328
H	-2.020567	-0.365678	2.029967
H	-2.81193	-0.967682	0.567966
H	-2.170392	3.182008	-0.983623
H	0.304707	-0.356817	-1.670095
H	-0.664064	-2.501273	-1.367202
H	0.83094	-0.935065	1.307681
H	1.22646	1.682226	-0.282547
H	1.670447	1.43233	1.405948
H	3.230675	-0.116838	0.543867
