19

C	2.938974	-0.970914	0.737881
C	2.237413	-0.167983	-0.378578
C	2.649368	1.317209	-0.355966
C	0.787997	-0.323781	-0.284751
C	-0.408347	-0.472677	-0.187306
C	-1.843977	-0.661401	-0.09751
O	-2.369487	-1.749557	-0.180936
C	-2.669953	0.619317	0.06246
O	-1.948452	1.747452	0.493473
H	2.662746	-0.58344	1.722835
H	2.663627	-2.02735	0.696581
H	4.024189	-0.88794	0.626881
H	2.545876	-0.59458	-1.343297
H	2.363065	1.78245	0.592071
H	3.733977	1.406813	-0.468211
H	2.173322	1.872943	-1.168283
H	-3.17794	0.785715	-0.903504
H	-3.449963	0.418824	0.802525
H	-1.144234	1.804794	-0.035279
