19

C	-0.338319	2.286444	-0.691576
C	-0.167825	0.98282	0.058695
C	1.146067	0.745769	0.847747
C	1.224569	-0.71163	0.314427
O	2.426955	-1.130721	-0.271966
C	0.013887	-0.418965	-0.658901
C	-1.315598	-0.862932	-0.064746
O	-2.028414	-1.810971	-0.230584
C	-1.444612	0.425265	0.773128
H	0.533635	2.504522	-1.317894
H	-1.219091	2.260367	-1.343047
H	-0.465005	3.125685	0.002854
H	1.972163	1.342198	0.443384
H	1.123434	0.888234	1.932069
H	0.992267	-1.47509	1.061288
H	2.693695	-0.473678	-0.924171
H	0.214356	-0.58016	-1.719804
H	-2.365556	0.976132	0.556534
H	-1.377231	0.284693	1.856544
