19

C	2.759447	0.081766	0.487343
C	1.329351	-0.41444	0.538573
C	0.727906	-0.976273	-0.728695
C	-0.659759	-1.563072	-0.424678
C	-1.092836	-0.153545	0.034105
C	-2.3678	0.524208	-0.173439
O	-1.920567	0.160014	1.14469
C	0.290169	0.399313	-0.199972
O	0.543492	1.654363	-0.722791
H	2.950435	0.826248	1.268991
H	3.462134	-0.743345	0.6416
H	2.985296	0.545487	-0.476711
H	1.045306	-0.877422	1.48362
H	1.332106	-1.196934	-1.599119
H	-1.20502	-1.911235	-1.305235
H	-0.686018	-2.337271	0.348164
H	-2.378229	1.592564	-0.383424
H	-3.223557	-0.036139	-0.548832
H	0.815278	2.235299	-0.003665
