19

C	-2.999083	-0.700484	-0.157379
C	-1.637016	-0.124344	0.065207
C	-1.185717	1.360077	0.148867
C	0.069176	0.458104	0.069348
C	1.509957	0.83185	-0.154545
C	2.398784	-0.38566	-0.334838
O	3.438733	-0.556791	0.247048
C	-0.561669	-0.492938	1.120074
O	-0.606257	-0.329228	-0.995932
H	-3.450995	-0.280238	-1.060803
H	-2.942457	-1.787319	-0.269691
H	-3.649061	-0.473326	0.693399
H	-1.383925	1.953832	-0.745158
H	-1.373132	1.9053	1.077818
H	1.570113	1.430025	-1.074884
H	1.892	1.434549	0.674337
H	2.013889	-1.126415	-1.067764
H	-0.213151	-1.526517	1.083265
H	-0.689682	-0.121362	2.140141
