19

C	-0.561202	1.967065	-0.562727
C	-0.303393	0.785199	0.389202
C	-1.439777	-0.240327	0.256349
O	-2.569686	-0.126807	0.649104
C	-0.853722	-1.442132	-0.493137
O	0.434301	-1.036575	-0.920669
C	0.895232	-0.066299	0.006704
C	2.289445	0.412925	-0.18675
C	1.955438	-0.49125	0.990586
H	0.226757	2.719174	-0.465528
H	-0.580348	1.630649	-1.603747
H	-1.521626	2.435633	-0.331726
H	-0.259439	1.140226	1.422289
H	-0.813242	-2.304571	0.192065
H	-1.459609	-1.718102	-1.360432
H	2.845742	-0.023842	-1.008558
H	2.508301	1.457601	0.006022
H	2.294946	-1.519266	0.93378
H	1.949476	-0.061534	1.987
