19

O	-2.930565	-0.09582	-0.285039
C	-1.669591	-0.011226	0.31769
C	-0.596399	-0.764735	-0.40608
C	-0.597554	0.762353	-0.417423
C	0.681467	1.084943	0.35607
C	1.888368	0.779042	-0.565683
C	1.886719	-0.784441	-0.552637
C	0.680433	-1.073394	0.375168
O	0.75341	0.014231	1.312686
H	-3.396839	0.727505	-0.106625
H	-1.665811	-0.00794	1.405784
H	-0.86406	-1.342814	-1.281793
H	-0.864173	1.32158	-1.306288
H	0.71372	2.039597	0.882936
H	1.763773	1.198467	-1.567259
H	2.810973	1.180999	-0.140177
H	1.760294	-1.220293	-1.546891
H	2.80891	-1.18084	-0.121505
H	0.70979	-2.018809	0.918016
