19

C	1.805932	2.31561	0.055159
O	1.437089	1.017042	0.461
C	1.492867	0.077096	-0.582066
C	0.909642	-1.255754	-0.119867
O	1.283228	-2.29448	-0.602922
C	-0.185773	-1.19657	0.954666
C	-1.366003	-0.484093	0.478979
C	-2.335372	0.087095	0.050361
C	-3.516611	0.777212	-0.447884
H	1.142503	2.693402	-0.737974
H	1.722007	2.965181	0.929212
H	2.841858	2.347648	-0.31557
H	0.899864	0.4125	-1.451353
H	2.521079	-0.099199	-0.931007
H	-0.425361	-2.229106	1.225709
H	0.228995	-0.688236	1.833344
H	-4.432795	0.243653	-0.171675
H	-3.588774	1.79188	-0.040933
H	-3.500004	0.858211	-1.540472
