19

C	3.112043	-0.414664	0.135988
O	1.839346	-0.001643	-0.309193
C	0.814548	-0.904137	0.033724
C	-0.49761	-0.362189	-0.555886
C	-1.626032	-1.186722	-0.141325
C	-2.554124	-1.852845	0.233659
C	-0.756917	1.119478	-0.159711
C	-0.64272	1.469001	1.308778
O	-1.041679	1.925891	-1.007
H	3.40188	-1.379879	-0.306565
H	3.828459	0.348431	-0.175679
H	3.148299	-0.513621	1.23206
H	1.011981	-1.906829	-0.376218
H	0.729033	-1.009122	1.12701
H	-0.418944	-0.356535	-1.648007
H	-3.380163	-2.443468	0.544681
H	-1.165957	0.736147	1.930042
H	0.415237	1.455716	1.592618
H	-1.046289	2.467637	1.478236
