19

O	-2.670109	0.323891	0.256876
C	-1.849799	-0.855829	0.236171
C	-0.609831	-0.619831	-0.608326
C	0.754889	-1.257392	-0.249821
C	1.556415	-0.034661	-0.833687
C	2.401896	0.107255	0.447295
C	1.008268	-0.302042	0.964377
C	0.279218	0.552508	-0.160343
O	-0.071693	1.882718	-0.123778
H	-3.012946	0.454628	-0.633801
H	-1.579925	-1.032776	1.281634
H	-2.428451	-1.725339	-0.10652
H	-0.849456	-0.621885	-1.681448
H	1.061973	-2.299239	-0.314362
H	1.841999	0.092582	-1.879147
H	3.208108	-0.620141	0.585842
H	2.743152	1.114912	0.699177
H	0.680318	-0.459012	1.992268
H	-0.976692	1.903354	0.217585
