19

C	-3.257216	-0.387435	-0.090721
O	-2.096427	0.273128	-0.54007
C	-1.021931	0.236044	0.378874
C	0.014848	1.334613	-0.012698
C	1.346961	0.715141	0.431938
O	2.473705	0.508209	-0.491558
C	2.450943	-0.931512	-0.233234
C	1.084461	-0.752333	0.376389
C	-0.201086	-1.060763	0.278934
H	-3.632958	0.046754	0.849091
H	-4.018345	-0.267059	-0.865409
H	-3.090957	-1.462938	0.072931
H	-1.417111	0.406271	1.395106
H	-0.0035	1.418198	-1.103281
H	-0.208948	2.31137	0.423032
H	1.727615	1.137544	1.370961
H	2.51547	-1.5295	-1.148162
H	3.257225	-1.219294	0.454229
H	-0.648588	-2.014576	0.027634
