19

O	-1.493431	1.352265	-0.794822
C	-1.603343	0.128056	-0.125197
C	-0.441052	-0.790756	-0.390258
O	0.728462	-0.106035	0.037682
C	1.922729	-0.773232	-0.322846
C	3.076414	0.009545	0.099385
C	4.042548	0.638152	0.435664
C	-2.285184	0.111627	1.221883
C	-2.988538	-0.421186	-0.012886
H	-0.629447	1.708205	-0.551665
H	-0.55637	-1.744623	0.148147
H	-0.373473	-1.010279	-1.468394
H	1.960544	-1.772338	0.143487
H	1.960219	-0.932956	-1.413948
H	4.893973	1.19702	0.736512
H	-1.947821	-0.59411	1.973297
H	-2.61586	1.069637	1.605276
H	-3.137674	-1.491521	-0.108363
H	-3.775786	0.187885	-0.441693
