19

C	1.979612	0.447121	0.365049
O	1.744445	-0.97052	0.206231
C	0.618421	-0.741086	-0.671228
C	-0.727169	-1.187766	-0.116799
C	-1.789938	-0.251194	-0.769738
C	-1.396141	0.768045	0.337308
C	-1.003709	-0.447321	1.219658
O	-0.266306	1.5452	-0.043237
C	0.809969	0.79814	-0.580944
H	1.841984	0.786109	1.398295
H	2.977086	0.735773	0.012971
H	0.795243	-1.174201	-1.664262
H	-0.856231	-2.271245	-0.16015
H	-1.648712	0.057651	-1.809601
H	-2.807296	-0.624496	-0.632077
H	-2.137097	1.482972	0.697219
H	-0.182523	-0.331826	1.928551
H	-1.875733	-0.860464	1.732826
H	1.121901	1.286651	-1.507556
