19

C	-3.423379	-0.127532	-0.091965
O	-2.161782	-0.693869	-0.370221
C	-1.108289	-0.132875	0.386189
C	-0.65088	1.280326	-0.071349
C	0.891066	1.278974	0.075918
C	1.229658	-0.1953	0.06878
C	2.594367	-0.713943	-0.067772
O	3.57727	-0.014759	-0.178778
C	0.140609	-0.95893	0.225875
H	-3.474632	0.934864	-0.37163
H	-4.160907	-0.679191	-0.679467
H	-3.679955	-0.215983	0.975704
H	-1.40354	-0.121071	1.453001
H	-0.926434	1.379586	-1.126483
H	-1.130753	2.090785	0.481469
H	1.407844	1.826457	-0.717035
H	1.209673	1.735802	1.021079
H	2.67283	-1.824011	-0.067913
H	0.123056	-2.042538	0.269217
