19

O	-2.708068	-0.738838	-0.662331
C	-1.681385	0.133846	-0.2789
C	-1.404151	0.368003	1.186335
C	-0.493297	-0.522223	0.356058
C	0.933875	-0.197368	0.024607
C	2.032147	-1.035376	0.686335
C	1.743164	-1.236993	-0.758871
C	1.338972	1.200032	-0.256805
O	0.613367	2.165865	-0.275424
H	-3.54379	-0.273869	-0.54905
H	-1.500244	0.970121	-0.94857
H	-1.049467	1.348949	1.474847
H	-2.046681	-0.133695	1.90191
H	-0.651549	-1.583978	0.52695
H	2.95425	-0.536536	0.9658
H	1.690507	-1.777013	1.399098
H	2.463504	-0.87822	-1.486586
H	1.195078	-2.119183	-1.068757
H	2.430045	1.307679	-0.466151
