19

O	1.918939	-1.498653	-0.085537
C	2.141305	-0.135341	0.223779
C	0.944447	0.798123	0.001568
O	1.125395	1.987933	-0.137363
C	-0.431606	0.20322	0.009838
C	-1.079224	-0.753257	-1.05402
C	-2.175867	-0.500947	0.019072
C	-1.074593	-0.726027	1.094988
C	-1.76383	1.000569	-0.005034
H	1.880004	-1.585618	-1.042753
H	2.376208	-0.099492	1.295352
H	3.003257	0.291622	-0.305894
H	-1.249342	-0.321767	-2.044384
H	-0.670264	-1.764016	-1.110322
H	-3.189269	-0.902783	0.024273
H	-1.244291	-0.268536	2.073527
H	-0.655347	-1.729851	1.179487
H	-1.985273	1.560128	-0.916696
H	-1.984145	1.588036	0.889467
