19

O	2.411416	-1.228643	-0.320076
C	1.678513	-0.641271	0.744817
C	0.580572	0.268037	0.258177
C	-0.477997	1.044293	1.098208
C	-0.796528	1.381203	-0.390352
C	0.73473	1.568124	-0.595092
C	-0.587462	-0.117492	-0.74407
C	-1.586514	-1.166753	-0.355122
O	-2.60684	-0.977381	0.262917
H	2.833334	-0.516006	-0.811035
H	1.254308	-1.476291	1.313341
H	2.335423	-0.082932	1.431964
H	-1.219321	0.461021	1.641422
H	-0.087097	1.868418	1.701282
H	-1.593426	2.023076	-0.763508
H	1.114837	1.453505	-1.614958
H	1.189858	2.423239	-0.087413
H	-0.220256	-0.330065	-1.755066
H	-1.316142	-2.19262	-0.698158
