19

C	3.701123	0.139238	-0.410355
C	2.440984	-0.378557	0.287486
C	1.170444	0.327401	-0.195196
C	-0.098741	-0.20521	0.471119
O	-0.276191	-1.551778	0.081636
C	-1.309393	0.681125	0.131567
O	-1.259865	1.89013	0.155328
C	-2.546907	-0.024527	-0.176664
C	-3.583079	-0.598283	-0.396902
H	3.839948	1.21231	-0.237425
H	4.595853	-0.375594	-0.046925
H	3.645514	-0.015668	-1.493572
H	2.336059	-1.455653	0.120493
H	2.538368	-0.241796	1.372962
H	1.224483	1.402662	0.001255
H	1.061392	0.201898	-1.279935
H	0.017311	-0.122586	1.568246
H	-1.112514	-1.872372	0.436822
H	-4.504558	-1.087132	-0.603961
