19

O	-2.813208	-0.672066	0.07166
C	-1.681229	-0.280524	-0.076008
C	-1.317882	1.202529	0.075021
O	0.009578	1.475739	-0.32477
C	0.950802	0.75113	0.44422
C	2.265119	0.468677	-0.314875
C	2.111191	-1.047505	0.005971
C	0.670073	-0.783751	0.532008
C	-0.490238	-1.168295	-0.396837
H	-1.981017	1.796525	-0.560446
H	-1.507364	1.50304	1.119859
H	1.086986	1.227993	1.425866
H	2.152663	0.701651	-1.375829
H	3.162454	0.963992	0.060328
H	2.191055	-1.733384	-0.840989
H	2.789581	-1.392207	0.789596
H	0.472248	-1.156799	1.540494
H	-0.205996	-0.975546	-1.439955
H	-0.778598	-2.218215	-0.311058
