19

C	-0.091931	1.752724	0.79315
C	-0.648755	1.181047	-0.511163
C	-1.869451	0.275183	-0.540445
O	-1.748204	-0.858963	0.310926
C	-0.574198	-1.616534	0.048831
C	0.64035	-0.844341	0.559236
C	1.974441	-0.836108	-0.223977
O	1.882009	0.595774	-0.449779
C	0.581147	0.610655	0.12503
H	0.377336	2.728241	0.721133
H	-0.615148	1.56055	1.725911
H	-0.508788	1.804404	-1.389049
H	-2.772759	0.795979	-0.205239
H	-2.037513	-0.061394	-1.577662
H	-0.706516	-2.574876	0.558326
H	-0.479653	-1.812525	-1.03247
H	0.76842	-0.978525	1.636094
H	2.875809	-1.097649	0.338715
H	1.958761	-1.394456	-1.16891
