19

C	2.935273	0.413493	-0.611767
C	2.095405	-0.542657	0.242676
C	0.6722	-0.689752	-0.272099
C	-0.398153	-1.14205	0.669708
C	-1.708714	-1.341057	-0.095969
C	-1.680134	0.188574	-0.359713
O	-2.554695	1.000358	-0.529323
C	-0.30469	0.374848	0.163936
O	0.141915	1.536358	0.732197
H	2.974247	0.080866	-1.654947
H	2.511944	1.421228	-0.592859
H	3.963433	0.467068	-0.24147
H	2.558344	-1.536999	0.257332
H	2.074589	-0.189153	1.278752
H	0.61713	-1.044691	-1.302714
H	-0.193171	-1.494772	1.671745
H	-1.657858	-2.000071	-0.967903
H	-2.574685	-1.607754	0.514546
H	-0.638861	2.042152	0.993883
