19

O	2.946774	-0.44815	-0.164604
C	1.632879	-0.849564	0.193439
C	0.557657	0.020321	-0.447456
C	0.367173	1.403776	0.220715
O	-0.75191	2.042901	-0.39559
C	-1.005355	1.072102	0.634237
C	-0.899649	-0.298886	-0.002282
C	-1.413129	-1.582742	0.588509
C	-1.976181	-1.058284	-0.712968
H	3.089221	0.443684	0.167146
H	1.536537	-1.881534	-0.159711
H	1.499062	-0.868723	1.286835
H	0.719446	0.078461	-1.52781
H	1.107467	2.043624	0.690157
H	-1.593577	1.392335	1.487066
H	-0.77925	-2.46247	0.555218
H	-2.031301	-1.518966	1.478623
H	-1.707458	-1.579477	-1.626062
H	-2.979433	-0.645293	-0.715078
