19

C	3.195219	-0.433796	-0.08876
O	1.828034	-0.608644	-0.405655
C	1.085225	0.562373	-0.277777
C	0.579832	0.973646	1.090337
C	-0.356043	0.398681	0.058721
C	-1.56408	1.032365	-0.67876
C	-2.240955	-0.350043	-0.595757
O	-2.333052	-0.70233	0.787507
C	-1.085922	-0.929635	0.110485
H	3.33107	-0.094894	0.947987
H	3.681833	-1.403336	-0.217524
H	3.674165	0.296961	-0.757771
H	1.36922	1.35486	-0.974376
H	0.841537	0.33688	1.9293
H	0.511182	2.031911	1.321424
H	-2.094888	1.835453	-0.161102
H	-1.323908	1.339888	-1.700374
H	-2.953694	-0.800366	-1.276289
H	-0.676025	-1.93111	0.122976
