19

C	1.026373	-1.314529	1.266107
C	0.763802	-0.48779	-1e-06
C	1.02637	-1.314569	-1.266082
O	1.66545	0.641728	-2.5e-05
C	0.951177	1.869683	1e-06
C	-0.493325	1.488683	-4e-06
C	-0.613063	0.158288	-6e-06
C	-1.890962	-0.575909	-5e-06
O	-2.981669	-0.050044	-1e-06
H	0.858292	-0.709172	2.160702
H	0.37086	-2.19075	1.311016
H	2.063114	-1.663381	1.27347
H	0.858282	-0.709242	-2.160697
H	2.063115	-1.663413	-1.27344
H	0.370864	-2.190796	-1.310959
H	1.219319	2.470727	0.88404
H	1.219324	2.470759	-0.884015
H	-1.315567	2.193132	-2e-06
H	-1.800088	-1.684474	3.9e-05
