19

O	2.967561	-0.252835	-0.377889
C	1.635809	-0.055936	-0.074487
C	0.489935	-0.698727	-0.886608
C	-0.19315	0.132252	0.243311
C	0.867119	-0.45326	1.22712
C	0.822991	1.275008	-0.077091
C	-1.648324	0.293419	0.496443
C	-2.640062	-0.699483	0.061119
O	-2.475966	0.528697	-0.648794
H	3.501319	0.262456	0.236488
H	0.34809	-0.337525	-1.907247
H	0.399616	-1.786196	-0.818629
H	1.075641	0.134781	2.126196
H	0.7923	-1.521606	1.446869
H	0.700441	1.776605	-1.039871
H	1.028609	1.983309	0.731506
H	-1.900937	0.916157	1.3571
H	-2.308479	-1.591378	-0.467748
H	-3.575253	-0.803137	0.609952
