19

C	-0.01801	2.250121	-0.053986
C	-0.392471	0.804735	0.0886
C	-1.447484	0.104321	-0.793668
O	-1.179957	-1.29783	-0.802957
C	-0.886282	-1.155436	0.620409
C	-1.67146	0.204924	0.676829
C	0.446859	-0.358649	0.650426
C	1.647784	-0.900276	-0.112942
O	2.747068	0.006747	-0.104059
H	0.382605	2.653682	0.882425
H	0.739587	2.400938	-0.832778
H	-0.887111	2.857196	-0.331438
H	-1.941343	0.55374	-1.645695
H	-1.054893	-2.066623	1.190507
H	-2.460924	0.605987	1.297362
H	0.723907	-0.134584	1.686637
H	2.013059	-1.812831	0.372903
H	1.349463	-1.168366	-1.134052
H	2.525148	0.741087	-0.683756
