19

C	3.197449	-1.52205	-0.270595
C	1.987079	-0.920082	0.421152
O	1.689268	0.319373	-0.205712
C	0.598359	1.017323	0.362102
C	0.582114	2.41998	-0.253453
C	-0.682978	0.329958	0.147567
C	-1.746297	-0.217141	-0.029421
C	-2.995763	-0.894217	-0.260891
O	-4.071106	-0.501401	0.129941
H	3.45912	-2.479026	0.190323
H	2.987955	-1.6926	-1.33023
H	4.058433	-0.852091	-0.19447
H	1.122704	-1.597272	0.352446
H	2.190449	-0.756094	1.492468
H	0.743123	1.106818	1.453375
H	-0.227353	3.016408	0.173244
H	1.538015	2.90893	-0.052202
H	0.44132	2.351847	-1.334544
H	-2.898835	-1.833319	-0.843004
