19

C	-1.808581	-0.984446	-0.797387
C	-0.86896	-0.19664	0.141915
C	-1.392483	-0.294789	1.593247
C	-0.811696	1.208024	-0.274447
C	-0.756007	2.364598	-0.597735
C	0.567402	-0.822208	0.031832
O	0.975337	-0.952402	-1.297415
C	1.603102	-0.018897	0.802578
O	2.590364	0.411837	0.257757
H	-1.87187	-2.029401	-0.475049
H	-2.81252	-0.552287	-0.771546
H	-1.43518	-0.957564	-1.820978
H	-0.808255	0.311226	2.289767
H	-2.425535	0.05967	1.637528
H	-1.375635	-1.335464	1.933978
H	-0.705749	3.384154	-0.891042
H	0.510097	-1.817258	0.509589
H	1.780003	-0.414717	-1.376723
H	1.422375	0.142306	1.881723
