19

O	-1.454781	1.809527	-0.097464
C	-1.3946	0.503811	-0.556354
C	-1.704419	-0.648538	0.437356
C	-0.906542	-1.619821	-0.446466
C	-0.080939	-0.317013	-0.304537
O	-0.444231	-0.297822	1.154726
C	1.325497	-0.023535	-0.671129
C	2.135684	0.941603	0.160184
C	2.45388	-0.530885	0.194371
H	-1.054365	1.782599	0.783857
H	-1.841931	0.45662	-1.551921
H	-2.585512	-0.826021	1.053467
H	-0.49094	-2.47908	0.079097
H	-1.306384	-1.870724	-1.432553
H	1.493738	-0.008886	-1.744338
H	2.813309	1.611984	-0.355857
H	1.659064	1.364233	1.036574
H	3.354461	-0.881575	-0.296775
H	2.179293	-1.076521	1.0898
