19

C	0.165012	2.157399	-0.119383
C	0.112173	0.72462	-0.635409
C	1.202592	-0.206748	-0.051964
O	2.379039	0.251723	0.511836
C	1.00457	-1.619144	-0.507177
C	0.154851	-1.080448	0.633487
C	-0.921603	-0.191282	0.065876
C	-2.222107	0.160837	0.63162
O	-2.117147	-0.668172	-0.536033
H	-0.711941	2.723653	-0.448089
H	0.202414	2.183348	0.974018
H	1.056937	2.671149	-0.491342
H	0.041777	0.709818	-1.729698
H	3.058711	0.261832	-0.171111
H	0.554347	-1.852338	-1.468913
H	1.779529	-2.307389	-0.184307
H	0.164886	-1.539454	1.614202
H	-2.574656	-0.343376	1.53121
H	-2.640072	1.152946	0.46531
