19

C	-3.067569	1.284832	0.417233
C	-2.490707	0.139372	-0.426923
O	-3.322118	-1.019324	-0.375917
C	-1.106675	-0.16569	-0.048016
C	0.014565	-0.426378	0.307318
C	1.38833	-0.741053	0.687303
C	2.400289	-0.318875	-0.365258
C	3.773032	0.047231	-0.000851
O	2.809545	1.04519	-0.346815
H	-4.097995	1.480696	0.109249
H	-3.061373	1.017966	1.479143
H	-2.475466	2.196069	0.293048
H	-2.509309	0.438662	-1.482
H	-3.225012	-1.402021	0.503185
H	1.64622	-0.250379	1.633659
H	1.485431	-1.822875	0.85328
H	2.216169	-0.717998	-1.36299
H	4.072818	0.031551	1.046615
H	4.581508	-0.095242	-0.71617
