19

O	2.696253	-1.334683	0.252919
C	1.939635	-0.547158	-0.254778
C	0.971004	0.323461	0.495874
C	0.820209	1.756358	-0.062562
O	-0.511155	1.495219	-0.536066
C	-0.512894	0.173097	0.048904
C	-1.08218	-0.933254	-0.872287
C	-2.414048	-0.867462	-0.073943
C	-1.667751	-0.08789	1.045574
H	1.90521	-0.414838	-1.362058
H	1.141633	0.228981	1.569038
H	0.847841	2.544294	0.699016
H	1.500582	2.025749	-0.880331
H	-1.108785	-0.684179	-1.935185
H	-0.561118	-1.886409	-0.739217
H	-3.165315	-0.253232	-0.574726
H	-2.869629	-1.81879	0.206714
H	-2.142134	0.807714	1.452632
H	-1.352926	-0.736496	1.868603
