19

O	-1.744487	1.511754	0.437231
C	-1.409517	0.154056	0.58455
C	-1.947817	-0.857607	-0.446729
O	-0.613472	-1.288163	-0.766956
C	-0.010476	-0.205697	0.024588
C	1.093062	-0.687658	0.985587
C	2.43605	-0.206168	0.38395
C	2.00344	0.787884	-0.664584
C	0.683695	0.806817	-0.842681
H	-2.597304	1.665281	0.855072
H	-1.538094	-0.182597	1.622039
H	-2.570578	-1.680024	-0.074613
H	-2.448415	-0.371922	-1.29561
H	0.935859	-0.23121	1.968463
H	1.034913	-1.771335	1.10981
H	3.092158	0.242943	1.138521
H	3.008457	-1.026305	-0.068744
H	2.714199	1.394566	-1.216202
H	0.141849	1.422117	-1.549027
