19

C	3.06704	0.39431	0.015004
O	1.786161	0.511025	-0.567106
C	0.750418	0.127622	0.290691
C	0.470385	-1.389379	0.494625
C	-1.040973	-1.079164	0.335643
O	-1.878407	-1.97546	-0.335404
C	-0.658371	0.282477	-0.345517
C	-1.444472	1.465288	-0.079675
C	-2.102858	2.437445	0.181408
H	3.303367	-0.645971	0.28422
H	3.791619	0.739823	-0.7258
H	3.158257	1.015092	0.919503
H	0.81498	0.661581	1.249479
H	0.845867	-1.95146	-0.367865
H	0.799784	-1.872694	1.415659
H	-1.515198	-0.892368	1.301953
H	-1.478077	-2.18481	-1.186091
H	-0.544797	0.116675	-1.424233
H	-2.684852	3.298014	0.400176
