19

C	-2.526799	-0.768239	0.007313
C	-1.125359	-0.378739	-0.471506
C	-0.973329	1.159557	-0.535004
O	0.377435	1.61463	-0.457989
C	1.201718	0.838273	0.411093
C	0.379709	0.124198	1.525953
C	-0.004238	-0.942292	0.447561
C	1.336292	-0.574154	-0.213502
O	2.16279	-1.161732	-0.845985
H	-2.701732	-0.431563	1.035362
H	-3.298785	-0.319154	-0.626979
H	-2.661705	-1.853608	-0.020276
H	-0.972103	-0.796653	-1.473777
H	-1.369753	1.554151	-1.474713
H	-1.559856	1.611539	0.278371
H	2.082231	1.434422	0.652982
H	1.038055	-0.286202	2.294931
H	-0.42257	0.692239	1.998583
H	-0.183533	-1.979982	0.735856
