19

C	-2.442712	-0.071849	-0.372939
C	-0.965036	0.149731	-0.15963
C	-0.275058	1.502024	-0.433774
C	0.825521	1.055879	0.567843
O	1.867708	0.35295	-0.082978
C	1.345905	-0.634241	-0.97347
C	-0.012022	-1.077421	-0.452178
O	0.162581	-1.328358	0.973449
C	-0.22246	0.030285	1.192325
H	-3.030981	0.734281	0.078736
H	-2.688755	-0.102992	-1.441233
H	-2.766165	-1.018542	0.072873
H	0.048643	1.758189	-1.446501
H	-0.878514	2.324193	-0.0351
H	1.293605	1.798121	1.214624
H	1.267978	-0.244561	-2.000675
H	2.052236	-1.470273	-0.974784
H	-0.433023	-1.934952	-0.984914
H	-0.632161	0.23335	2.184142
