19

O	1.681297	-1.647639	-0.337224
C	0.671926	-0.76523	-0.003279
C	0.676154	-4e-06	1.301844
C	0.671827	0.765301	-0.003286
O	1.681096	1.647727	-0.337233
C	-0.724259	0.779311	-0.663903
C	-2.014185	0.78227	0.214851
C	-2.014196	-0.782371	0.21479
C	-0.72416	-0.779406	-0.663848
H	1.715896	-2.342222	0.329486
H	-0.154733	-0.000196	2.002684
H	1.659503	0.000264	1.765047
H	1.715374	2.342579	0.329212
H	-0.741685	1.332827	-1.603042
H	-1.92557	1.265906	1.191581
H	-2.879569	1.21168	-0.295128
H	-1.926033	-1.266229	1.191441
H	-2.87941	-1.211536	-0.29569
H	-0.74156	-1.333004	-1.602956
