19

C	2.502903	0.843279	-1.5e-05
C	1.851806	-0.536836	4.7e-05
C	0.749152	-0.725188	1.087026
C	-0.320672	-0.468409	-2e-05
C	0.749193	-0.725268	-1.086998
O	-1.554724	-1.216263	-3.1e-05
C	-2.394159	-0.042852	2.5e-05
C	-1.131938	0.827046	-8e-06
O	-0.882236	1.995198	-3.8e-05
H	3.133925	0.977758	-0.885216
H	1.747989	1.637108	-4e-06
H	3.133976	0.977806	0.885144
H	2.619523	-1.314313	8.6e-05
H	0.672469	-1.757986	1.43721
H	0.760885	-0.050361	1.94707
H	0.672544	-1.758074	-1.437152
H	0.760975	-0.050484	-1.947079
H	-3.02223	0.038212	-0.895733
H	-3.022088	0.038222	0.895889
