19

O	2.826646	-0.37519	-0.092486
C	1.955718	0.709736	-0.307695
C	0.507695	0.346424	-0.020902
O	0.385421	-0.606166	1.07952
C	0.02438	-1.024311	-0.248794
C	-1.443738	-1.248543	-0.5242
C	-2.343387	-0.194286	0.152773
C	-1.79741	1.202439	0.014735
C	-0.488115	1.447883	-0.052702
H	2.527242	-0.77999	0.73354
H	2.227104	1.578401	0.317537
H	2.061098	1.018221	-1.354454
H	0.719152	-1.73936	-0.687376
H	-1.578232	-1.211915	-1.613372
H	-1.739634	-2.254026	-0.20541
H	-3.356319	-0.252517	-0.258686
H	-2.43219	-0.433903	1.219907
H	-2.505793	2.0263	0.003572
H	-0.109827	2.463589	-0.130815
