19

C	-2.421283	0.269712	0.28719
C	-1.01616	-0.186309	0.07262
O	-0.602856	-1.455744	0.592396
C	-0.391731	-1.193014	-0.808377
C	0.90768	-0.366617	-0.94818
C	2.01581	-0.620738	0.117481
C	1.386715	0.475349	1.036918
C	0.269395	0.709024	-0.023618
O	0.061604	1.991056	-0.542131
H	-2.636278	1.13475	-0.347337
H	-3.126572	-0.529987	0.045645
H	-2.585231	0.560658	1.331793
H	-0.828001	-1.904922	-1.501599
H	1.195143	-0.10827	-1.966719
H	2.015816	-1.62588	0.540254
H	3.020259	-0.378079	-0.234745
H	1.052504	0.137501	2.019558
H	2.016855	1.361702	1.146375
H	-0.297046	2.545584	0.16045
