19

C	-2.200435	-0.730389	-0.242812
C	-0.75584	-0.443745	0.092084
O	-0.144288	-1.382575	0.991515
C	0.319299	-1.345007	-0.363354
C	1.740242	-0.872701	-0.56433
C	1.994717	0.503721	-0.018153
C	1.046146	1.314178	0.445841
C	-0.4272	1.011972	0.419853
O	-1.09517	1.908199	-0.478943
H	-2.3435	-1.800307	-0.413215
H	-2.849232	-0.424638	0.58545
H	-2.51479	-0.174821	-1.129005
H	0.033359	-2.219934	-0.949737
H	2.425956	-1.592524	-0.095499
H	1.98009	-0.900775	-1.637496
H	3.031931	0.830068	-0.001661
H	1.306096	2.299742	0.823032
H	-0.870768	1.234061	1.399601
H	-0.585059	1.915958	-1.296819
