19

C	-2.0503	1.128181	0.689843
C	-1.254199	0.041756	-0.012654
O	-1.996084	-0.545116	-1.075108
C	-0.533067	-1.067179	0.864525
C	0.690496	-0.984035	-0.122754
O	2.021192	-0.776314	0.310493
C	2.401235	0.559989	-0.069089
C	1.097362	1.279848	-0.384613
C	0.151409	0.356525	-0.498613
H	-2.367686	1.889414	-0.029137
H	-2.949519	0.703792	1.153401
H	-1.460578	1.606878	1.475843
H	-2.79038	-0.934584	-0.692639
H	-0.26557	-0.698727	1.856785
H	-1.057311	-2.024686	0.931771
H	0.646565	-1.775382	-0.88015
H	2.926539	1.032415	0.771794
H	3.10423	0.524589	-0.917039
H	0.995223	2.357224	-0.353579
