19

C	-1.353538	1.83351	-0.06391
C	-0.440765	0.739222	-0.596783
C	-1.094006	-0.573193	-1.050217
O	-1.666772	-1.207072	0.109949
C	-0.27428	-1.376527	-0.139147
C	0.44655	-0.10466	0.409873
C	0.298766	0.119262	1.912446
C	1.908629	-0.141094	0.009525
O	2.377713	0.322736	-0.998631
H	-0.779104	2.633368	0.414411
H	-1.923987	2.284423	-0.883123
H	-2.066209	1.437757	0.664336
H	0.219502	1.119362	-1.381148
H	-1.530379	-0.827033	-2.009243
H	0.10569	-2.389558	-0.213503
H	0.559946	1.145028	2.192233
H	-0.731229	-0.071155	2.220042
H	0.952798	-0.556934	2.475296
H	2.557308	-0.679691	0.739422
