19

O	-2.304866	-1.079692	0.716658
C	-2.119527	-0.098139	-0.296962
C	-0.653357	0.225876	-0.376848
C	-0.220844	1.599519	-0.828577
C	-0.002648	1.189298	0.60802
C	1.369795	0.671598	0.981963
C	1.642427	-0.487253	0.007921
O	2.718809	-0.97931	-0.206845
C	0.320126	-0.907674	-0.646558
H	-3.199802	-1.423758	0.644105
H	-2.475866	-0.46921	-1.271495
H	-2.685975	0.819305	-0.069317
H	0.639018	1.681898	-1.488377
H	-0.997039	2.331633	-1.026051
H	-0.609337	1.663791	1.370909
H	2.176952	1.408314	0.924778
H	1.376624	0.264092	2.001304
H	0.480302	-1.140838	-1.703904
H	-0.032241	-1.82256	-0.154203
