19

O	2.568372	-1.401053	-0.288326
C	1.335054	-1.19343	0.369523
C	0.530664	-0.00373	-0.203713
C	1.243506	1.262208	-0.072214
C	1.796423	2.319773	0.072712
C	-0.842661	0.088242	0.477226
C	-1.907078	1.004532	-0.161305
C	-2.730549	-0.291633	-0.302013
O	-1.644737	-1.088433	0.22285
H	2.382186	-1.696197	-1.18528
H	0.693417	-2.084132	0.335813
H	1.581575	-0.990681	1.416517
H	0.347206	-0.20741	-1.269532
H	2.303699	3.24551	0.187592
H	-0.70306	0.243341	1.555821
H	-2.326042	1.773755	0.487543
H	-1.595774	1.46057	-1.102695
H	-3.62034	-0.351861	0.336425
H	-3.004096	-0.592779	-1.319698
