19

C	3.366314	-0.651056	0.025242
C	2.021293	-0.046841	-0.359528
O	2.022172	1.296045	0.097118
C	0.839635	-0.829972	0.246108
C	-0.487272	-0.376521	-0.316365
O	-0.832803	1.00529	-0.119952
C	-1.630572	0.002498	0.542027
C	-2.993058	-0.137856	0.107441
C	-4.138653	-0.266246	-0.232073
H	3.467648	-0.696057	1.114437
H	3.475322	-1.661247	-0.38113
H	4.176146	-0.028863	-0.364751
H	1.925775	-0.07477	-1.460336
H	1.114296	1.622046	0.057846
H	0.953634	-1.901244	0.041766
H	0.862356	-0.691693	1.333012
H	-0.7276	-0.730836	-1.319057
H	-1.478218	-0.036323	1.619966
H	-5.150443	-0.375727	-0.536191
