19

C	2.053072	-1.127972	0.232733
C	1.036097	-0.446749	-0.674595
C	-0.315156	-1.160375	-0.738829
C	-1.343164	-0.015139	-0.979751
O	-0.609742	1.197936	-1.095643
C	0.245019	0.725063	-0.008812
C	0.871278	1.820455	0.79461
C	-0.88505	-0.346422	0.398641
O	-1.465972	-0.76215	1.565977
H	2.925514	-0.487482	0.402267
H	1.613645	-1.372988	1.206145
H	2.410879	-2.061997	-0.212694
H	1.484792	-0.165951	-1.63481
H	-0.536518	-2.187427	-1.001706
H	-2.277612	-0.131978	-1.512321
H	0.107033	2.471595	1.229265
H	1.479318	1.408607	1.605031
H	1.517174	2.4349	0.15729
H	-2.091098	-0.086736	1.854881
