19

C	-3.701924	0.192136	0.086565
C	-2.354281	-0.335172	-0.071574
C	-1.242046	-0.778597	-0.196868
C	0.118201	-1.277155	-0.354936
C	1.205144	-0.248872	0.080401
C	2.60645	-0.806838	-0.220924
O	1.090985	0.028113	1.451603
C	1.002806	1.036729	-0.710935
O	0.793659	2.095178	-0.172749
H	-4.280316	0.095029	-0.83883
H	-4.246148	-0.338191	0.875745
H	-3.681433	1.254127	0.354614
H	0.273049	-2.173611	0.257232
H	0.296289	-1.573521	-1.397058
H	2.743941	-1.008674	-1.28814
H	3.370982	-0.098458	0.108173
H	2.748325	-1.741111	0.329625
H	0.826564	0.959559	1.512658
H	1.065498	0.945139	-1.815218
