19

O	-1.856042	-1.495514	-0.265625
C	-0.7493	-0.904348	0.409936
C	-1.104353	0.527986	0.78446
C	-1.513201	1.4118	-0.368542
C	-0.109866	1.487973	0.165996
C	0.919994	0.692723	-0.599554
O	2.14208	0.477126	0.145011
C	1.876955	-0.933661	0.255868
C	0.522001	-0.803954	-0.473423
H	-1.651454	-2.424299	-0.414121
H	-0.523544	-1.480499	1.320112
H	-1.53882	0.712282	1.759613
H	-1.688806	0.939251	-1.329246
H	-2.178299	2.239858	-0.15205
H	0.222301	2.379687	0.685707
H	1.136016	1.092343	-1.597683
H	2.633396	-1.532333	-0.267248
H	1.825906	-1.265005	1.302113
H	0.421611	-1.385299	-1.390737
