19

C	-2.861678	-0.59571	-0.212431
C	-1.382359	-0.206665	-0.33166
C	-0.512079	-1.049572	0.607457
O	0.800585	-1.288232	0.096624
C	1.713307	-0.300689	-0.064381
O	2.831952	-0.606574	-0.395957
C	1.367797	1.128218	0.162927
C	0.202835	1.784687	0.134155
C	-1.1974	1.290241	-0.059371
H	-3.022584	-1.637467	-0.50538
H	-3.219508	-0.476344	0.817194
H	-3.486069	0.034753	-0.853208
H	-1.042649	-0.430411	-1.350491
H	-0.453326	-0.595002	1.605233
H	-0.931178	-2.052346	0.720307
H	2.277032	1.708092	0.286865
H	0.264688	2.863366	0.275767
H	-1.766918	1.565089	0.843292
H	-1.662331	1.875655	-0.865093
