19

C	-2.768243	0.609844	0.082256
O	-1.361828	0.608356	0.358902
C	-0.66136	-0.382122	-0.218553
O	-1.152527	-1.235457	-0.911079
C	0.835365	-0.295885	0.149016
C	0.972884	-0.445109	1.686822
C	1.592771	-1.428328	-0.572179
C	1.357779	1.006671	-0.273196
C	1.81816	2.05869	-0.62749
H	-3.230793	-0.316688	0.431688
H	-3.174214	1.466997	0.619093
H	-2.947782	0.709478	-0.991046
H	2.028383	-0.400532	1.966776
H	0.437973	0.352252	2.204232
H	0.568861	-1.410524	2.007684
H	1.196239	-2.399221	-0.266131
H	1.483062	-1.342612	-1.654453
H	2.654967	-1.378134	-0.32055
H	2.214002	2.993229	-0.939936
