19

C	-2.124143	1.901846	0.243816
C	-1.688414	0.548692	-0.347582
C	-2.447977	-0.631035	0.308882
O	-2.111689	-1.878019	-0.249718
C	-0.250002	0.331334	-0.226889
C	0.927075	0.087582	-0.096419
C	2.338701	-0.216026	0.052697
C	3.283192	0.956134	-0.115164
O	2.719125	-1.342028	0.295933
H	-3.201309	2.040391	0.110575
H	-1.901445	1.948926	1.313953
H	-1.607129	2.729735	-0.247029
H	-1.934136	0.529178	-1.418122
H	-2.273944	-0.603905	1.396276
H	-3.520718	-0.493518	0.139072
H	-1.168057	-2.017695	-0.104314
H	3.045939	1.737682	0.614746
H	4.312087	0.618997	0.018138
H	3.158634	1.39942	-1.109071
