19

C	0.497533	-0.465879	1.725144
C	0.274748	-0.47444	0.191316
C	1.628279	-0.746532	-0.431553
O	2.321815	0.105768	-0.931799
C	-0.800375	-1.474026	-0.192159
C	-1.961512	-0.865991	-0.437886
C	-1.857476	0.634039	-0.296665
C	-0.336308	0.858516	-0.346621
O	0.046828	2.021614	0.35242
H	1.167482	0.347327	2.014577
H	-0.456211	-0.325098	2.239648
H	0.926884	-1.415201	2.062958
H	1.983192	-1.801226	-0.365201
H	-0.630026	-2.545603	-0.200953
H	-2.888259	-1.372137	-0.68395
H	-2.387128	1.188425	-1.077543
H	-2.261398	0.977258	0.665735
H	-0.036494	0.936219	-1.400294
H	0.963477	2.196857	0.110608
