19

C	-2.586082	-0.885622	-0.912028
C	-1.932838	-0.070391	0.186842
O	-2.06965	-0.335029	1.358869
C	-1.052375	1.100805	-0.253358
C	0.368095	0.632643	-0.526085
C	1.539728	1.483734	-0.185557
C	1.254523	0.245583	0.658804
C	2.145725	-0.924589	0.482211
O	2.686332	-1.211091	-0.562096
H	-1.846914	-1.190836	-1.661101
H	-3.074797	-1.764286	-0.490014
H	-3.328092	-0.270093	-1.434717
H	-1.457417	1.575967	-1.15464
H	-1.052519	1.835543	0.55671
H	0.501113	-0.013362	-1.389483
H	2.411781	1.419967	-0.826501
H	1.365818	2.445996	0.283333
H	0.834902	0.387412	1.648168
H	2.292011	-1.550329	1.389085
