19

O	-2.458813	0.807891	-0.000317
C	-1.176949	0.271263	-0.000136
C	-0.014694	1.246192	-6e-05
C	1.109246	0.187664	6e-05
O	2.390285	0.753252	0.000178
C	0.70621	-0.703382	-1.209617
C	-0.72799	-0.956147	-0.769937
C	-0.728145	-0.956091	0.769752
C	0.705972	-0.703329	1.209714
H	-3.095977	0.08661	0.002708
H	0.012249	1.879485	-0.891657
H	0.012062	1.879528	0.89151
H	3.033431	0.036483	-0.000159
H	0.786158	-0.159371	-2.155936
H	1.311427	-1.616086	-1.275176
H	-1.424855	-1.568753	-1.32946
H	-1.425079	-1.56873	1.329181
H	0.78576	-0.159281	2.156024
H	1.311137	-1.616052	1.275417
