19

C	1.324552	2.051891	0.154358
C	1.030192	0.704311	-0.493167
C	1.568914	-0.517822	0.304492
O	1.224628	-1.655827	-0.532551
C	-0.131778	-1.398632	-0.164421
C	0.188927	-0.611155	1.06009
C	-0.352954	0.125526	-0.166395
C	-1.695301	0.753808	-0.365267
O	-2.66795	-0.110126	0.211403
H	0.761139	2.858836	-0.326025
H	1.060336	2.047729	1.21773
H	2.388334	2.299519	0.070668
H	1.3235	0.701456	-1.550304
H	2.577841	-0.557034	0.712436
H	-0.897092	-2.130769	-0.378672
H	-0.125494	-0.676474	2.091901
H	-1.723216	1.749853	0.107056
H	-1.8794	0.899467	-1.443264
H	-3.534668	0.28749	0.089516
