19

C	3.027593	-0.214626	-0.019696
C	1.554976	-0.143697	-0.369484
C	0.762643	0.998243	0.266476
C	0.555509	-0.49784	0.669339
C	-0.873344	-0.503429	0.099776
C	-1.263772	-1.499598	-0.97916
O	-1.795056	-0.536159	1.181893
C	-0.63383	1.007635	-0.246975
O	-1.421423	1.865849	-0.543535
H	3.413064	-1.226536	-0.181086
H	3.61246	0.472139	-0.639429
H	3.199411	0.047396	1.028958
H	1.339107	-0.391634	-1.406117
H	1.268705	1.803873	0.78472
H	0.814941	-0.942246	1.621543
H	-1.374759	-2.496578	-0.541815
H	-2.224182	-1.210341	-1.419294
H	-0.528703	-1.54997	-1.787362
H	-2.56686	-0.023748	0.911363
