19

C	1.679555	-1.269741	-0.87686
C	1.02093	-0.707268	0.390809
C	1.580308	0.684203	0.797195
C	0.768413	1.710948	-0.018089
C	-0.598957	1.059505	-0.208531
O	-1.619037	1.586604	-0.569427
C	-0.455913	-0.408449	0.164767
C	-1.579514	-1.078705	0.849483
O	-1.29031	-1.34126	-0.516738
H	1.623692	-0.562903	-1.712057
H	2.735704	-1.490403	-0.694697
H	1.178986	-2.188897	-1.19112
H	1.154206	-1.427877	1.203261
H	1.413882	0.850665	1.866889
H	2.656328	0.757749	0.621125
H	0.677197	2.696101	0.44455
H	1.201212	1.866385	-1.014519
H	-1.359585	-1.887759	1.545283
H	-2.495771	-0.518773	1.027968
