19

C	2.672227	-0.717651	0.243255
C	1.27765	-0.389811	-0.322216
C	0.180453	-0.975138	0.592035
C	-1.208841	-0.871137	-0.012443
O	-1.800357	-1.80984	-0.472948
O	-1.790345	0.352642	-0.054827
C	-1.137676	1.506148	0.494564
C	0.151135	1.900027	-0.185061
C	1.148813	1.09548	-0.547667
H	3.460328	-0.339864	-0.415559
H	2.812529	-0.261851	1.229407
H	2.806478	-1.798809	0.344633
H	1.198952	-0.889124	-1.299619
H	0.36283	-2.040085	0.744994
H	0.222181	-0.484698	1.571134
H	-1.87215	2.304084	0.366062
H	-1.002486	1.374914	1.576617
H	0.239032	2.960953	-0.405211
H	1.995353	1.544555	-1.065062
