19

O	-4.045644	-0.007844	-0.499102
C	-3.151557	0.255994	0.575043
C	-1.743463	0.091745	0.217836
C	-0.595312	-0.083189	-0.108372
C	0.795774	-0.271393	-0.454992
C	1.551357	-1.569564	-0.019552
C	2.820255	-0.71132	0.218655
C	1.90179	0.533749	0.317012
O	2.325233	1.778277	-0.155904
H	-3.801713	-0.862414	-0.869475
H	-3.346805	1.291797	0.875058
H	-3.382242	-0.374403	1.44926
H	0.94565	-0.112261	-1.531019
H	1.141474	-1.96476	0.912447
H	1.607701	-2.375056	-0.752832
H	3.457926	-0.944845	1.073062
H	3.443326	-0.661453	-0.681852
H	1.576694	0.697692	1.34807
H	2.648226	1.666108	-1.056449
