19

C	0.271195	2.522921	0.119977
O	-0.393516	1.40281	-0.42917
C	-0.160519	0.190216	0.274735
C	-1.141919	-0.840626	-0.310281
C	-2.591302	-0.475151	-0.059744
O	-3.448359	-1.275612	0.215978
C	1.228184	-0.270207	0.169072
C	2.364104	-0.658602	0.070701
C	3.73601	-1.130414	-0.046891
H	-0.0432	2.708776	1.158538
H	1.361483	2.395174	0.101852
H	-0.00082	3.384831	-0.493048
H	-0.395523	0.34448	1.34328
H	-0.979066	-0.865779	-1.395679
H	-0.948876	-1.83929	0.08684
H	-2.818888	0.60732	-0.159973
H	3.780304	-2.224078	-0.003524
H	4.180309	-0.818725	-0.998307
H	4.364753	-0.739124	0.760141
