19

C	-0.940175	1.893322	-0.667569
C	-0.103495	0.793029	-0.088009
C	1.456343	0.820914	-0.13571
C	2.16921	-0.108533	0.816815
C	1.503017	-0.672557	-0.409879
C	-0.035087	-0.72202	-0.323783
O	-0.734708	-1.581189	-1.139568
C	-0.61512	-0.196023	0.959059
O	-2.008862	-0.407139	0.941979
H	-0.854431	2.81962	-0.08352
H	-0.633776	2.124258	-1.694175
H	-1.995671	1.607269	-0.700551
H	1.983477	1.60453	-0.666145
H	3.252803	-0.060875	0.747861
H	1.818914	-0.312398	1.821813
H	2.040067	-1.195307	-1.190241
H	-1.642482	-1.588225	-0.805126
H	-0.180066	-0.314718	1.951135
H	-2.448431	0.373685	1.294119
