19

C	2.533163	-1.035201	0.752235
C	2.213716	0.173393	-0.134134
C	0.924461	0.863721	0.262797
C	0.136183	1.670486	-0.740395
C	-0.381235	0.337106	-0.27852
O	-0.480175	-0.816784	-1.12456
C	-1.70665	-1.255741	-0.489242
C	-1.646192	-0.024046	0.433683
O	-2.305505	0.435908	1.317735
H	3.483603	-1.493762	0.463234
H	2.608361	-0.74732	1.806525
H	1.75091	-1.795052	0.664375
H	3.033107	0.9016	-0.086749
H	2.140321	-0.148807	-1.17853
H	0.875537	1.204475	1.295266
H	-0.398278	2.556687	-0.414601
H	0.506333	1.697654	-1.760564
H	-2.553874	-1.281765	-1.183587
H	-1.601263	-2.225	0.010693
