19

C	2.090502	-0.51302	-0.023708
O	1.079351	-1.240116	-0.766143
C	0.031152	-0.608574	-0.035056
C	-1.131209	-1.40683	0.558031
O	-2.074284	-0.410051	0.105003
C	-1.056696	0.282689	-0.668669
C	-0.777873	1.721693	-0.200832
C	0.713158	1.729115	0.232722
C	1.014265	0.297653	0.730571
H	2.690531	-1.190615	0.594481
H	2.753714	0.058572	-0.683302
H	-1.278523	-2.372868	0.057249
H	-1.157117	-1.54903	1.645054
H	-1.227148	0.175548	-1.745295
H	-0.989048	2.476532	-0.962821
H	-1.431555	1.921676	0.653926
H	1.346265	1.957372	-0.632456
H	0.921206	2.49397	0.985496
H	1.031328	0.21383	1.818429
