19

C	2.273869	0.645524	0.030461
O	2.166079	-0.796882	0.097444
C	0.842457	-0.769639	-0.471182
C	0.836672	0.783864	-0.496465
C	-0.254675	0.794736	0.605175
C	-1.660743	1.147501	0.111842
O	-2.108013	0.020715	-0.631536
C	-1.667268	-1.124463	0.090464
C	-0.265853	-0.784451	0.60502
H	2.486474	1.095708	1.00901
H	3.053328	0.951152	-0.679092
H	0.74038	-1.430267	-1.337636
H	0.668557	1.392848	-1.38462
H	0.010526	1.313953	1.528844
H	-2.326384	1.334923	0.971016
H	-1.694914	2.018301	-0.549519
H	-2.342791	-1.333958	0.936148
H	-1.69334	-1.978728	-0.592711
H	0.006873	-1.313034	1.5194
