19

O	-3.23916	0.051492	-0.244536
C	-2.059465	-0.729173	-0.126226
C	-1.005364	0.1328	0.537135
C	-0.366011	1.333819	-0.265796
C	1.020919	0.951401	0.370208
O	2.199492	0.730384	-0.379256
C	2.498599	-0.677319	-0.307567
C	1.211785	-1.346277	0.159099
C	0.413735	-0.390055	0.619127
H	-3.906445	-0.475644	-0.693327
H	-2.233729	-1.631417	0.482854
H	-1.691876	-1.060224	-1.110316
H	-1.384638	0.48976	1.500835
H	-0.370758	1.132317	-1.339256
H	-0.75842	2.331748	-0.062188
H	1.234115	1.570834	1.252925
H	2.794581	-1.02673	-1.305593
H	3.354569	-0.844807	0.366322
H	0.994755	-2.392026	-0.017804
