19

O	2.629544	0.244091	-0.642054
C	1.861101	-0.500958	0.292292
C	0.381486	-0.171755	0.256286
C	-0.585289	-1.16148	0.996103
C	-1.505509	-1.114506	-0.221995
C	-1.647811	0.324717	-0.675281
O	-1.399331	1.361573	0.254643
C	-0.019965	1.262875	0.618991
C	-0.420536	-0.417385	-1.057123
H	2.66235	1.158604	-0.346463
H	2.004602	-1.5512	0.017252
H	2.24582	-0.381576	1.318585
H	-0.12643	-2.146741	1.119647
H	-0.994874	-0.829432	1.956324
H	-2.208816	-1.882386	-0.524562
H	-2.418692	0.5711	-1.395222
H	0.570456	2.005341	0.057212
H	0.071225	1.475422	1.69028
H	-0.028209	-0.593486	-2.0494
