19

C	-2.437711	-1.136811	-0.128723
C	-1.462898	-0.103071	0.423674
C	-1.297498	1.166101	-0.468893
O	-0.024725	1.749193	-0.155207
C	0.782882	0.788698	0.509492
O	2.012885	0.491597	-0.11562
C	2.122723	-0.9268	-0.280405
C	0.741765	-1.469046	-0.002891
C	-0.019571	-0.482095	0.452961
H	-2.497307	-2.011246	0.526405
H	-3.445462	-0.718573	-0.21664
H	-2.123789	-1.477513	-1.120798
H	-1.790492	0.222715	1.420512
H	-1.33409	0.874268	-1.528725
H	-2.069826	1.920224	-0.288913
H	0.997871	1.191488	1.511597
H	2.443329	-1.154529	-1.306565
H	2.896346	-1.318377	0.398089
H	0.439993	-2.476642	-0.259635
