19

C	-2.139406	-0.848533	-0.182653
C	-0.712229	-0.371587	-0.106795
O	-0.19493	-0.627986	1.214857
C	1.240594	-0.61416	1.155937
C	1.580968	-0.490784	-0.317583
C	0.919569	0.602224	-1.132498
C	0.362865	-0.827048	-1.117328
C	-0.361175	1.113178	-0.461434
O	-0.311364	2.023359	0.603558
H	-2.756958	-0.319506	0.549544
H	-2.552104	-0.663907	-1.178309
H	-2.199718	-1.920305	0.029358
H	1.631172	0.218315	1.754592
H	1.620835	-1.552628	1.578602
H	2.553163	-0.826115	-0.65994
H	1.45948	1.100803	-1.929026
H	0.278922	-1.569518	-1.898617
H	-1.041667	1.508197	-1.224193
H	-0.289889	1.481938	1.404789
