19

O	1.87151	-1.784793	-0.635172
C	2.058018	-0.98266	0.244985
C	1.100742	0.113401	0.624831
C	1.470185	1.545967	0.142817
O	0.214427	1.678358	-0.537119
C	-0.164447	0.303419	-0.238704
C	-1.501775	0.186345	0.419424
C	-2.740051	0.02778	-0.427825
C	-2.224168	-1.141389	0.366844
H	3.000662	-0.998774	0.8395
H	0.911824	0.068775	1.702228
H	1.603431	2.297578	0.928959
H	2.324323	1.593157	-0.546034
H	-0.131037	-0.31297	-1.146231
H	-1.606483	0.767913	1.33151
H	-3.647257	0.518985	-0.095211
H	-2.613581	0.007225	-1.505014
H	-2.774698	-1.454969	1.246362
H	-1.745725	-1.952629	-0.171975
