19

C	-2.923339	-0.491974	-0.128768
C	-1.798538	-0.003484	0.795428
C	-0.539853	0.325815	0.039825
C	-0.290533	1.658943	-0.64639
C	0.704514	1.245061	0.37238
C	1.688047	0.263869	-0.292517
O	2.673792	-0.292364	0.534447
C	0.459402	-0.680721	-0.400413
O	0.449589	-1.887411	-0.385546
H	-3.186397	0.270697	-0.868912
H	-2.613653	-1.393023	-0.665982
H	-3.823005	-0.731601	0.445684
H	-2.127212	0.88282	1.35176
H	-1.573365	-0.779136	1.536643
H	-0.006541	1.701295	-1.695396
H	-0.997104	2.428374	-0.350752
H	0.884464	1.75332	1.309908
H	2.127601	0.648787	-1.22248
H	2.529973	-1.24838	0.531041
