19

C	2.902407	-0.130453	-0.229406
O	1.718173	0.623691	-0.036415
C	0.691238	-0.086443	0.564625
O	0.231224	-1.150229	-0.289835
C	-1.176918	-1.159805	-0.215435
C	-1.961685	0.052528	-0.67762
C	-1.05536	1.28263	-0.632432
C	-0.538843	0.798104	0.761771
C	-1.705637	-0.223397	0.81379
H	2.7393	-0.955803	-0.931395
H	3.651523	0.552025	-0.636369
H	3.271712	-0.541767	0.722185
H	1.047602	-0.53707	1.509776
H	-1.607254	-2.143175	-0.36145
H	-2.885864	-0.048888	-1.236079
H	-0.30447	1.398947	-1.417304
H	-1.635753	2.202816	-0.536459
H	-0.432851	1.540768	1.550013
H	-2.37033	-0.454524	1.635322
