19

O	3.0039	-0.054467	-0.034379
C	1.659647	-0.008804	-0.461108
C	0.978217	1.291156	0.047692
C	-0.042433	0.455368	0.864588
C	0.65537	-0.848765	0.382014
O	-0.502932	-1.242163	-0.383184
C	-1.221511	-0.083292	0.066283
C	-2.221599	0.608424	-0.79735
C	-2.663286	-0.168402	0.4394
H	3.37609	-0.899084	-0.309665
H	1.555264	-0.205553	-1.536155
H	1.670926	1.848764	0.681427
H	0.56145	1.958653	-0.70956
H	-0.220327	0.721095	1.905589
H	1.049815	-1.647175	1.016429
H	-2.268812	1.692676	-0.776838
H	-2.430472	0.162826	-1.764002
H	-3.009977	0.387042	1.305133
H	-3.158131	-1.120309	0.279032
