19

O	-2.377489	-0.517137	0.312711
C	-1.274082	-0.312166	-0.568791
C	-0.871379	1.167544	-0.598719
O	-0.061624	1.541677	0.509903
C	1.087213	0.725564	0.658916
C	1.847391	0.298646	-0.646534
C	1.346134	-1.128541	-0.434024
C	0.797606	-0.760417	0.94966
C	-0.134641	-1.224453	-0.133187
H	-2.080746	-0.246399	1.18982
H	-1.648281	-0.594941	-1.55914
H	-0.368422	1.410034	-1.544659
H	-1.777989	1.774151	-0.532919
H	1.71629	1.227571	1.394607
H	1.612624	0.808472	-1.583982
H	2.926057	0.365343	-0.483176
H	1.892832	-2.022209	-0.71097
H	0.91712	-1.262382	1.901701
H	-0.466041	-2.253021	-0.016124
