19

C	-2.201486	-0.874603	-0.115487
C	-0.754495	-0.472685	-0.084845
C	0.433098	-1.43271	-0.203304
C	1.580289	-0.667977	-0.857602
C	1.211309	0.694151	-0.244426
O	1.085324	0.408832	1.164522
C	0.178181	-0.684856	1.085778
C	-0.271432	0.868575	-0.652162
O	-0.896319	1.9865	-0.063883
H	-2.536995	-1.087861	-1.137071
H	-2.383312	-1.771584	0.485482
H	-2.826281	-0.067225	0.279983
H	0.306245	-2.504288	-0.286563
H	2.56577	-1.016733	-0.536184
H	1.538817	-0.657064	-1.950439
H	1.875846	1.542317	-0.392919
H	-0.083853	-1.124619	2.037854
H	-0.404733	0.958382	-1.73398
H	-0.616328	1.986641	0.861012
