19

C	-2.424117	-1.119569	-0.613541
C	-2.084584	-0.198002	0.57346
C	-0.971713	0.768139	0.206798
O	-1.170563	1.806153	-0.38232
C	0.447776	0.390618	0.623102
O	0.683866	-1.046513	0.564103
C	1.650973	-0.844785	-0.478351
C	2.804905	-0.032994	0.013892
C	1.528102	0.660043	-0.415562
H	-1.569698	-1.751565	-0.866869
H	-3.267033	-1.768665	-0.360544
H	-2.697692	-0.528966	-1.492424
H	-2.960513	0.40111	0.840506
H	-1.789567	-0.803298	1.435846
H	0.622823	0.787453	1.635274
H	1.667231	-1.556349	-1.295003
H	3.086676	-0.081627	1.062368
H	3.631361	0.074491	-0.682022
H	1.461941	1.409589	-1.190179
