19

C	0.471308	-0.32962	1.334658
C	1.086344	-1.123864	0.158591
C	2.141634	-0.097407	-0.359974
C	1.304584	1.246278	-0.316345
C	0.010999	0.604156	0.151698
O	-1.243267	1.210594	0.155843
C	-2.16219	0.130722	-0.02773
O	-1.441737	-1.053882	-0.388544
C	-0.118598	-0.660363	-0.703569
H	-0.362131	-0.838984	1.814914
H	1.152847	0.088272	2.079407
H	1.404834	-2.16158	0.242685
H	3.017041	-0.064435	0.293127
H	2.484353	-0.327121	-1.372881
H	1.712533	1.979322	0.383446
H	1.209733	1.716109	-1.298523
H	-2.70482	-0.07926	0.903506
H	-2.867919	0.418058	-0.818549
H	0.029072	-0.603489	-1.789503
