19

C	2.616944	-0.891524	-0.308993
C	1.114729	-0.997215	-0.225498
O	0.497394	-0.825352	1.047244
C	0.160971	0.121384	0.018659
C	0.722502	1.494626	0.254849
O	0.304266	2.488662	-0.281933
C	-1.238391	0.076943	-0.516092
C	-2.400173	0.014692	0.445615
C	-2.061782	-1.177972	-0.412641
H	2.926048	-0.727531	-1.346485
H	3.012762	-0.081562	0.305376
H	3.07181	-1.827946	0.030386
H	0.686237	-1.818968	-0.802496
H	1.559733	1.525276	0.984126
H	-1.373079	0.69961	-1.393637
H	-2.170211	-0.060372	1.502599
H	-3.284503	0.596191	0.212739
H	-1.616685	-2.028784	0.091038
H	-2.714185	-1.428011	-1.241521
