19

C	-2.033787	-1.384721	0.116155
C	-1.042073	-0.253235	0.034753
C	-1.424048	1.228213	-0.148029
C	0.079031	1.382597	-0.441972
O	0.66538	1.128647	0.855452
C	0.237605	-0.244132	0.972923
C	1.055552	-0.891683	-0.171984
O	2.433926	-0.681508	-0.198251
C	0.0961	-0.074143	-1.057326
H	-2.710966	-1.37834	-0.74454
H	-1.541329	-2.362507	0.143985
H	-2.64658	-1.299794	1.021423
H	-2.04357	1.359796	-1.039832
H	-1.827291	1.798472	0.693696
H	0.528951	2.257197	-0.907556
H	0.253055	-0.573515	2.011071
H	0.867818	-1.962946	-0.276136
H	2.560456	0.214993	0.1413
H	-0.045266	-0.207842	-2.128139
