19

O	-3.294848	0.018816	0.467596
C	-2.269274	0.413688	-0.025627
C	-1.266167	-0.478521	-0.733267
C	0.146832	-0.26404	-0.241659
C	1.379022	-1.093509	-0.6914
C	2.018217	-0.339308	0.517596
C	0.632154	-0.490741	1.217549
C	1.910375	1.106264	0.02056
O	0.56409	1.093601	-0.50959
H	-1.986606	1.487099	0.003297
H	-1.571822	-1.520438	-0.60941
H	-1.296874	-0.229568	-1.803621
H	1.269165	-2.164214	-0.512172
H	1.768146	-0.898733	-1.694082
H	2.952922	-0.651061	0.980645
H	0.446948	-1.502873	1.580327
H	0.341099	0.25283	1.963903
H	1.993	1.85222	0.819397
H	2.623135	1.352402	-0.774843
