19

O	-0.838493	2.05241	-0.131677
C	-0.121336	1.077945	-0.057886
C	1.373798	1.202854	0.220909
C	2.193509	-0.034105	-0.172271
C	1.439779	-1.301119	0.220344
O	0.193393	-1.35442	-0.461682
C	-0.680437	-0.315783	-0.117725
C	-1.785517	-0.627251	0.897171
C	-2.097683	-0.500696	-0.566485
H	1.734022	2.122713	-0.247153
H	1.448971	1.36084	1.306753
H	2.355259	-0.053676	-1.255798
H	3.179399	-0.009476	0.304869
H	1.983499	-2.200827	-0.079318
H	1.283626	-1.341993	1.310972
H	-1.752805	-1.623133	1.324348
H	-2.098512	0.169167	1.562434
H	-2.294132	-1.410326	-1.12155
H	-2.611205	0.391727	-0.903026
