19

O	-3.052989	1e-06	-0.180479
C	-1.669571	0.0	-0.390156
C	-0.710416	0.767933	0.471787
C	0.444229	1.555014	-0.133365
C	1.686597	0.735133	-0.404503
O	2.220374	0.0	0.701124
C	1.686597	-0.735133	-0.404503
C	0.444228	-1.555014	-0.133366
C	-0.710416	-0.767933	0.471788
H	-3.21875	-6e-06	0.767534
H	-1.473341	0.0	-1.460396
H	-1.147542	1.213594	1.361414
H	0.138068	2.035337	-1.072164
H	0.727496	2.368321	0.54438
H	2.444742	1.243658	-1.002824
H	2.444742	-1.243658	-1.002824
H	0.138067	-2.035336	-1.072165
H	0.727495	-2.368321	0.54438
H	-1.147541	-1.213593	1.361414
