19

C	0.36205	2.149048	0.48786
C	-0.15409	0.974303	-0.345022
C	-1.694806	0.800063	-0.310102
C	-1.962321	-0.70193	-0.555529
C	-0.730441	-1.387934	0.002328
O	-0.3098	-0.914014	1.275814
C	0.357154	-0.383095	0.109891
C	1.777447	-0.793542	-0.030471
O	2.597899	-0.178214	-0.666267
H	1.44872	2.238299	0.406325
H	-0.081617	3.090017	0.147683
H	0.102955	2.015261	1.543413
H	0.183964	1.096837	-1.381976
H	-2.062316	1.078667	0.681182
H	-2.198846	1.440282	-1.037906
H	-2.885275	-1.054415	-0.084822
H	-2.030469	-0.932744	-1.62555
H	-0.536465	-2.441643	-0.18777
H	2.024598	-1.734205	0.509312
