19

O	-2.445126	-0.431224	0.027808
C	-1.091241	-0.106618	-0.05613
C	-0.677225	1.14123	-0.84492
C	0.511249	1.73421	-0.051269
C	1.078044	0.555617	0.769189
O	1.941855	-0.250809	-0.040799
C	1.173691	-1.238358	-0.726508
C	-0.174434	-1.301423	-0.029925
C	-0.140742	-0.308912	1.110311
H	-2.896046	0.285979	0.487531
H	-0.406434	0.899168	-1.878375
H	-1.522852	1.834357	-0.898273
H	1.282506	2.183026	-0.681846
H	0.149351	2.505085	0.639091
H	1.660544	0.88223	1.633786
H	1.08619	-0.981309	-1.792741
H	1.699324	-2.198056	-0.65652
H	-0.659545	-2.260916	0.105077
H	-0.442922	-0.54778	2.121713
