19

C	-2.03623	1.468319	-0.197859
C	-1.298815	0.147354	-0.172816
C	-2.037361	-1.106571	-0.394705
O	-1.637111	-0.718669	0.924334
C	0.167264	0.208566	-0.498516
C	1.108192	0.61519	0.628139
C	2.534475	0.646364	0.092837
O	2.399212	-0.696294	-0.455005
C	1.090816	-0.801696	0.112305
H	-3.085953	1.330275	0.072448
H	-1.586221	2.173282	0.508453
H	-1.987265	1.917695	-1.195559
H	-3.110019	-1.074214	-0.58108
H	-1.518368	-1.972049	-0.803024
H	0.395554	0.550817	-1.50734
H	0.758515	1.015725	1.569692
H	2.778538	1.388312	-0.677261
H	3.298834	0.662375	0.877976
H	0.789538	-1.737666	0.564749
