19

C	-2.398051	-1.145329	-0.630952
C	-1.717037	0.197868	-0.497589
C	-1.667156	0.909763	0.833218
C	-0.420362	0.286572	0.269176
O	0.235681	-0.84437	0.84999
C	1.561161	-0.331353	0.519146
C	2.358745	-1.248513	-0.387292
C	0.885945	0.899847	-0.119181
O	1.247583	1.888742	-0.686591
H	-2.021328	-1.690401	-1.50229
H	-2.214777	-1.764878	0.250794
H	-3.479711	-1.023622	-0.749438
H	-1.760346	0.83911	-1.374899
H	-1.721426	1.99296	0.863696
H	-2.093981	0.397489	1.689923
H	2.117077	-0.086138	1.433481
H	1.803712	-1.473248	-1.302328
H	3.304558	-0.769773	-0.659503
H	2.580632	-2.189616	0.124216
