19

C	2.820625	0.962986	0.235955
C	1.801295	0.280054	-0.678589
C	0.903978	-0.707839	0.059664
C	-0.153939	-1.395605	-0.828249
O	-1.320475	-1.423041	-0.013241
C	-1.248937	-0.247236	0.757974
O	0.116567	-0.048822	1.069012
C	-1.813411	0.916207	0.04411
C	-2.287437	1.861481	-0.526811
H	2.312153	1.500823	1.040555
H	3.495352	0.231433	0.694519
H	3.432778	1.678143	-0.321284
H	1.164147	1.030333	-1.161564
H	2.318614	-0.263429	-1.481185
H	1.519401	-1.455591	0.577531
H	-0.333115	-0.818818	-1.746589
H	0.097722	-2.424308	-1.092167
H	-1.799647	-0.421503	1.688336
H	-2.709184	2.697533	-1.02864
