19

C	2.916707	0.000949	-9e-06
O	1.785617	-0.846619	1.1e-05
C	0.551158	-0.218405	6e-06
C	0.085102	0.820976	-1.072316
C	-1.015777	1.123889	-2e-06
C	0.085094	0.820979	1.072322
C	-1.769546	-0.197784	-1e-06
O	-2.953124	-0.399544	-7e-06
C	-0.61489	-1.220854	0.0
H	2.952705	0.640824	0.892361
H	3.793861	-0.649399	3.6e-05
H	2.952734	0.640739	-0.892438
H	0.768916	1.665203	-1.18162
H	-0.22893	0.45268	-2.052494
H	-1.598614	2.041148	-6e-06
H	0.768904	1.665208	1.181629
H	-0.228946	0.452685	2.052498
H	-0.633832	-1.859137	0.888071
H	-0.633828	-1.859134	-0.888073
