19

C	1.522835	-0.816185	1.224212
C	0.772172	-0.352767	-0.013833
O	1.686431	0.177863	-0.977598
C	-0.304975	-1.228646	-0.653013
C	-1.64146	-0.879791	0.029236
C	-1.380321	0.216175	1.069443
C	-0.333987	0.745623	0.075962
O	0.051214	2.062967	0.125675
C	-1.108372	-0.03647	-1.097779
H	2.065786	0.01847	1.678736
H	0.848813	-1.245947	1.968904
H	2.253184	-1.592227	0.961321
H	2.361958	-0.481722	-1.161191
H	-0.168087	-2.169194	-1.173041
H	-2.470005	-1.574997	0.000444
H	-2.232343	0.898631	1.131927
H	-1.045634	-0.047594	2.078723
H	0.84672	2.129287	-0.421266
H	-1.516903	0.251019	-2.054545
