19

O	-2.222519	-0.265876	-0.621053
C	-0.916154	-0.149364	-0.167765
C	-0.305017	-0.893893	1.007104
C	1.11595	-1.332204	0.66593
C	1.283063	-0.988869	-0.837664
C	0.278349	0.150662	-1.114069
C	0.753401	1.512233	-0.57673
O	0.518118	1.476711	0.839457
C	-0.569797	0.615771	1.056245
H	-2.334104	-1.146849	-0.99542
H	-0.931958	-1.503219	1.649968
H	1.843081	-0.785964	1.275149
H	1.262606	-2.398636	0.857162
H	2.310799	-0.721379	-1.102855
H	1.008174	-1.859436	-1.444387
H	-0.030633	0.21175	-2.15959
H	1.818714	1.706926	-0.732659
H	0.173739	2.329735	-1.030559
H	-1.323972	0.994382	1.737657
