19

C	2.381408	0.912264	-0.359342
C	1.378029	0.331376	0.620692
C	0.772618	-1.117999	0.340174
O	0.721285	-1.449904	-1.018641
C	-0.615202	-0.575148	0.856057
O	-1.759879	-0.732517	0.034059
C	-2.160085	0.598503	-0.380011
C	-0.908793	1.450959	-0.223036
C	-0.068506	0.785825	0.562441
H	2.530016	1.982272	-0.181414
H	3.353102	0.417579	-0.261101
H	2.030049	0.771349	-1.384083
H	1.768419	0.343389	1.645157
H	1.230338	-1.930674	0.916038
H	-0.215082	-1.421089	-1.264877
H	-0.825771	-0.843445	1.898148
H	-2.497948	0.547875	-1.42151
H	-3.011704	0.931535	0.233065
H	-0.729493	2.345894	-0.804608
