19

C	-2.653758	0.790202	-0.009071
C	-1.543283	-0.120852	-0.518871
C	-1.32091	-1.417393	0.341014
C	0.067546	-0.904868	0.734406
C	0.893791	-0.746352	-0.561976
C	2.289081	-0.334517	-0.392033
O	2.665043	0.51315	0.402714
C	-0.13511	0.321203	-0.110463
O	0.191143	1.63363	0.059776
H	-2.631476	1.757369	-0.519094
H	-3.633136	0.33187	-0.181316
H	-2.54842	0.979303	1.064192
H	-1.66338	-0.293976	-1.59396
H	-2.007527	-1.459381	1.190026
H	-1.350437	-2.375534	-0.187452
H	0.5835	-1.042196	1.677109
H	0.692997	-1.415273	-1.396545
H	3.023315	-0.831653	-1.05869
H	1.100933	1.650681	0.407777
