19

O	-2.148423	-1.563866	-0.320683
C	-1.146367	-1.171548	0.591977
C	-0.369824	0.086742	0.157835
C	0.636411	-0.20798	-1.013124
C	1.770186	-0.365103	0.038299
O	2.983491	0.311751	-0.185382
C	0.8753	0.331751	1.080958
C	-1.261658	1.216252	-0.033693
C	-1.979797	2.169214	-0.183398
H	-1.735194	-1.707947	-1.178321
H	-1.662495	-0.96659	1.535244
H	-0.427223	-1.986286	0.777698
H	0.41495	-1.059045	-1.666126
H	0.804188	0.680727	-1.623955
H	1.947575	-1.419776	0.289324
H	3.498935	-0.187045	-0.827285
H	0.834099	-0.089408	2.088516
H	1.12192	1.393076	1.138684
H	-2.622799	3.003245	-0.318385
