19

O	0.713894	2.032465	-0.223546
C	1.114937	0.730982	-0.553772
C	2.026431	-0.11696	0.380065
C	1.541542	-1.34743	-0.436549
C	0.250163	-0.520539	-0.163696
C	-1.163002	-0.848818	-0.599627
C	-2.154675	0.221037	-0.183345
O	-3.161914	0.008095	0.44219
C	0.786452	-0.344255	1.296374
H	0.583085	2.097686	0.727995
H	1.419726	0.77196	-1.603496
H	3.046971	0.104845	0.691695
H	1.873447	-1.416878	-1.476785
H	1.603089	-2.312148	0.071184
H	-1.186206	-0.91044	-1.697934
H	-1.498726	-1.810628	-0.198556
H	-1.878242	1.250737	-0.499161
H	0.410133	0.500455	1.882504
H	0.799804	-1.244167	1.916705
