19

C	0.929858	1.835221	0.814136
C	0.616103	0.876156	-0.339726
O	-0.807004	0.901802	-0.578105
C	-1.660476	-0.042086	-0.123976
O	-2.841643	0.109651	-0.280164
C	-1.072284	-1.270247	0.553289
C	0.386023	-1.488762	0.28631
C	1.181657	-0.506556	-0.127818
C	2.649196	-0.681081	-0.403195
H	0.487404	2.814347	0.614253
H	0.523838	1.450821	1.754647
H	2.010213	1.95975	0.931543
H	1.036572	1.293786	-1.262968
H	-1.267686	-1.168181	1.631005
H	-1.680012	-2.121971	0.232853
H	0.782443	-2.487938	0.447862
H	2.888403	-0.438963	-1.446309
H	3.262532	-0.019636	0.220733
H	2.964999	-1.709512	-0.211593
