19

C	-0.700837	2.319752	0.453195
C	-0.122652	1.202469	-0.424429
C	1.394017	0.963095	-0.203842
C	1.622134	-0.560946	-0.368514
O	2.630111	-1.107015	0.466439
C	0.243294	-1.129243	-0.147849
C	-0.706351	-0.183955	-0.176758
C	-2.151038	-0.471679	-0.056515
O	-2.613581	-1.563028	0.191421
H	-0.592775	2.076979	1.516003
H	-0.175682	3.262536	0.268748
H	-1.76303	2.491455	0.253051
H	-0.296568	1.473481	-1.476231
H	2.02716	1.562767	-0.86166
H	1.65447	1.230678	0.828435
H	1.960333	-0.800239	-1.385935
H	2.349738	-0.98483	1.380591
H	0.05568	-2.189324	-0.019882
H	-2.822973	0.399889	-0.217726
