19

O	-0.693978	1.854231	-0.584345
C	-0.243725	0.758491	0.171279
C	1.174555	0.895919	0.759964
C	2.04248	-0.219939	0.063663
C	1.145447	-0.962944	-0.988339
C	-0.213913	-0.669514	-0.433989
C	-1.7494	-0.646768	-0.607579
C	-1.383587	-0.07951	0.805998
O	-0.420808	-1.179398	0.960239
H	0.044317	2.20299	-1.094065
H	1.556902	1.899114	0.544746
H	1.194584	0.774946	1.843454
H	2.938867	0.195224	-0.405496
H	2.375051	-0.939071	0.813881
H	1.24033	-0.519832	-1.986596
H	1.38823	-2.025655	-1.065692
H	-2.164528	0.041293	-1.343677
H	-2.240411	-1.61997	-0.585343
H	-2.046191	0.137886	1.64566
