19

C	-2.118352	-1.541171	0.55332
C	-1.432906	-0.5108	-0.363815
C	-0.04759	-0.952862	-0.763993
C	0.910502	-0.261103	-0.12562
C	0.3174	0.781113	0.795939
C	-1.158467	0.860306	0.329279
O	-1.374167	1.946134	-0.560121
C	2.347467	-0.502182	-0.279148
O	3.208686	0.111226	0.312158
H	-2.225877	-2.507936	0.051712
H	-1.53773	-1.703647	1.467356
H	-3.116738	-1.195658	0.838884
H	-2.076044	-0.339535	-1.235508
H	0.139791	-1.767583	-1.457592
H	0.406225	0.465657	1.842666
H	0.806554	1.756492	0.72287
H	-1.84868	1.03651	1.158067
H	-0.739071	1.867582	-1.281147
H	2.607098	-1.31057	-0.999385
