19

C	-0.132347	0.931952	1.623376
C	0.11295	0.001412	0.453782
C	-0.996325	-1.013137	0.17696
C	-2.2462	-0.395371	-0.25474
C	-3.267952	0.12961	-0.608729
C	1.54632	-0.448442	0.182946
O	1.825528	-1.7191	-0.333585
C	0.872247	0.52134	-0.745425
O	1.240054	1.868337	-0.747941
H	-0.207789	0.367686	2.560437
H	0.671395	1.663947	1.720031
H	-1.068514	1.482124	1.484559
H	-0.653951	-1.727134	-0.579957
H	-1.181327	-1.600036	1.088085
H	-4.172428	0.586391	-0.925461
H	2.307791	-0.032902	0.844382
H	1.778957	-2.354289	0.389381
H	0.57421	0.114508	-1.712561
H	2.094833	1.941615	-1.185716
