19

C	2.24146	-0.518242	-0.920722
C	1.00652	-0.473473	-0.068844
C	1.014308	0.001366	1.379488
C	0.164532	0.699677	0.35236
O	0.316144	2.022539	-0.037832
C	-1.13484	-0.068158	-0.055111
O	-2.168749	0.601732	-0.673221
C	-1.335927	-1.365184	0.637671
C	-0.283564	-1.267006	-0.461393
H	2.925088	0.296735	-0.664563
H	2.780793	-1.464283	-0.791424
H	1.99124	-0.422416	-1.983666
H	0.606621	-0.572828	2.205089
H	1.914732	0.554941	1.635512
H	-0.007206	2.587781	0.673782
H	-1.764462	1.291963	-1.214473
H	-1.09999	-1.539454	1.68335
H	-2.231899	-1.88309	0.304959
H	-0.329016	-1.897406	-1.340839
