19

C	-2.658696	0.982348	0.064076
C	-1.339366	0.328926	0.423239
O	-1.367613	-1.110339	0.165531
C	-0.292206	-1.009461	-0.774345
C	1.148421	-1.168376	-0.203332
O	1.171063	-0.559552	1.09199
C	1.273701	0.300742	-0.045976
C	2.430694	1.241381	-0.129562
C	-0.173315	0.516707	-0.582228
H	-2.908405	0.817233	-0.988761
H	-3.46523	0.566097	0.675561
H	-2.611278	2.061778	0.247342
H	-1.069304	0.520386	1.466481
H	-0.483214	-1.503234	-1.730733
H	1.886094	-1.941105	-0.39472
H	3.353443	0.737624	0.170167
H	2.550628	1.621099	-1.149337
H	2.280231	2.101065	0.533593
H	-0.295962	1.224573	-1.400996
