19

O	-3.111462	-0.168599	-0.427157
C	-2.142779	0.621163	0.232327
C	-0.75141	0.295065	-0.281974
O	-0.49561	-1.126063	-0.104359
C	0.705261	-0.842099	0.67273
C	1.98242	-1.047476	-0.092667
C	2.496944	0.109155	-0.511506
C	1.682184	1.312978	-0.09198
C	0.455678	0.687109	0.598795
H	-2.796907	-1.078666	-0.354227
H	-2.387906	1.671274	0.034701
H	-2.171247	0.466776	1.324115
H	-0.66289	0.574516	-1.340487
H	0.667614	-1.356834	1.638815
H	2.400273	-2.029894	-0.27955
H	3.407983	0.20898	-1.09268
H	2.249611	1.962078	0.587217
H	1.403699	1.939782	-0.949311
H	0.176563	1.183919	1.529194
