19

O	2.18333	-1.325087	0.042416
C	2.15142	0.043753	-0.322304
C	1.10715	0.784988	0.478323
C	0.277809	1.937786	-0.088762
C	-0.315626	0.585261	0.100944
C	-0.962226	-0.445802	-0.838845
C	-2.359718	0.065353	-0.41369
C	-1.476482	-0.080136	0.848834
O	-0.998194	-1.392351	0.312262
H	1.268104	-1.597162	0.205162
H	3.15547	0.444079	-0.141308
H	1.942467	0.17144	-1.399161
H	1.314042	0.836267	1.544915
H	0.006413	2.741652	0.587857
H	0.481454	2.262345	-1.105301
H	-0.624998	-0.83568	-1.798946
H	-2.647419	1.073942	-0.717541
H	-3.165139	-0.664303	-0.504188
H	-1.745447	-0.04029	1.904087
