19

O	2.947624	-0.265753	-0.336624
C	1.842707	-0.354955	0.555473
C	0.753542	0.649491	0.208604
C	-0.617233	0.708287	0.98682
C	-1.159899	1.434359	-0.276486
C	-0.224882	0.440518	-1.020151
C	-0.848841	-0.924419	-0.653318
O	-2.202032	-0.881246	-0.170072
C	-1.125762	-0.735686	0.771318
H	2.630577	-0.486947	-1.218086
H	1.451149	-1.380728	0.599652
H	2.248075	-0.1225	1.546929
H	1.212418	1.642352	0.158592
H	-0.696828	1.135661	1.986055
H	-2.226677	1.37859	-0.478875
H	-0.79576	2.460121	-0.341783
H	0.088828	0.602595	-2.051537
H	-0.540487	-1.855971	-1.115298
H	-1.053817	-1.502748	1.534357
