19

O	2.835702	-0.082578	-0.517459
C	1.919586	0.664541	-0.266484
C	0.596961	0.222999	0.247905
C	0.557044	-0.993704	1.165609
C	0.050881	-1.120276	-0.235407
C	-1.423735	-1.213788	-0.590722
C	-2.245795	-0.042898	-0.026035
C	-1.488806	1.266776	-0.224743
O	-0.278131	1.27437	0.528063
H	1.996683	1.765726	-0.399804
H	1.509502	-1.454609	1.401937
H	-0.154422	-0.919426	1.980437
H	0.72789	-1.633832	-0.911799
H	-1.507535	-1.200881	-1.684435
H	-1.833485	-2.174388	-0.258203
H	-3.219724	0.005389	-0.524235
H	-2.437775	-0.174831	1.045174
H	-1.277503	1.426979	-1.294515
H	-2.061019	2.123646	0.139877
