19

C	-3.146173	-0.447285	0.050411
O	-2.186443	0.579266	-0.099927
C	-0.919526	0.197403	0.331582
C	-0.014864	-0.459667	-0.69466
C	0.200473	0.990901	-0.267674
C	1.586982	0.8164	0.386796
C	2.364421	-0.010251	-0.6734
C	1.314816	-1.03705	-0.167222
O	1.437086	-0.419511	1.153711
H	-3.244188	-0.75787	1.101513
H	-4.103159	-0.046178	-0.291275
H	-2.891677	-1.333599	-0.548825
H	-0.862061	-0.122596	1.369694
H	-0.404382	-0.731428	-1.667643
H	-0.020733	1.835203	-0.907888
H	2.021413	1.640142	0.952446
H	2.334413	0.306566	-1.719194
H	3.37594	-0.255682	-0.345374
H	1.472522	-2.115312	-0.16872
