19

C	-1.369851	1.836204	-0.400437
C	-0.719106	0.733247	0.442184
C	-1.074509	-0.705588	0.088875
C	-2.494029	-1.132046	-0.112509
C	0.009606	-1.487673	0.016153
C	1.281338	-0.760439	0.356393
O	2.357121	-0.994988	-0.523623
C	0.80447	0.698492	0.297225
O	1.534317	1.622556	0.039971
H	-0.914431	2.800848	-0.163354
H	-1.222247	1.649861	-1.468728
H	-2.443951	1.902155	-0.207325
H	-0.949568	0.924351	1.503273
H	-3.094819	-0.947306	0.787477
H	-2.968544	-0.569029	-0.924812
H	-2.558417	-2.19654	-0.352522
H	-0.002845	-2.547885	-0.209951
H	1.587446	-0.985961	1.396662
H	2.808356	-0.144227	-0.618812
