19

C	-0.484303	2.068097	-0.405926
C	0.465515	1.022618	0.131255
O	1.412031	1.324023	0.831647
C	0.219536	-0.441377	-0.253366
C	1.483505	-1.283612	-0.001698
O	2.629454	-0.762622	-0.634991
C	-0.962889	-1.049777	0.559436
C	-2.296784	-0.665175	0.118685
C	-3.399834	-0.364915	-0.254055
H	-0.396186	2.105305	-1.498518
H	-1.523358	1.804919	-0.187459
H	-0.23546	3.043975	0.012681
H	-0.037425	-0.479745	-1.318173
H	1.634287	-1.388537	1.083489
H	1.324797	-2.287491	-0.410927
H	2.842566	0.048264	-0.156886
H	-0.877571	-2.142492	0.493178
H	-0.834494	-0.80462	1.621502
H	-4.377504	-0.105945	-0.578122
