19

C	0.469299	1.859498	0.185884
C	0.033394	0.50705	-0.34914
C	1.199603	-0.56834	-0.362993
O	2.477114	0.007463	-0.381737
C	0.634797	-1.092604	1.062593
C	-0.671939	-0.492252	0.544962
C	-1.430484	-1.12237	-0.667265
C	-1.481564	0.393523	-0.767828
O	-1.842628	0.42027	0.724796
H	1.239203	1.775498	0.957269
H	0.899264	2.459581	-0.623262
H	-0.388341	2.389261	0.603802
H	1.108664	-1.346888	-1.126166
H	3.129614	-0.700105	-0.375454
H	0.671042	-2.161327	1.290844
H	1.103195	-0.512779	1.860719
H	-0.874065	-1.681476	-1.421269
H	-2.375771	-1.595717	-0.403433
H	-2.107321	1.045055	-1.384794
