19

C	0.756976	1.250063	-0.961468
C	0.178042	1.26635	0.489767
O	-1.210452	1.036824	0.607988
C	-1.787894	-0.128807	0.03365
O	-1.019311	-0.802444	-0.92121
C	0.272029	-1.252972	-0.522605
C	0.536577	-1.29191	1.010485
C	1.1713	0.099139	0.88307
C	1.364117	-0.122812	-0.655129
H	0.037671	1.328147	-1.777875
H	1.531029	2.014119	-1.081074
H	0.341791	2.192486	1.043746
H	-2.072131	-0.807401	0.851123
H	-2.693287	0.188392	-0.493961
H	0.455062	-2.172414	-1.081888
H	-0.294556	-1.45054	1.699664
H	1.305058	-2.041349	1.222873
H	1.97319	0.394619	1.561305
H	2.307399	-0.435408	-1.104759
