19

O	-1.570525	-1.155948	-0.805452
C	-1.435462	-0.082744	0.156865
C	-0.654259	-0.665351	1.308982
C	0.676873	-0.710192	1.272676
C	1.44585	-0.188246	0.076944
O	1.568654	-1.213714	-0.911929
C	0.783378	1.039023	-0.527953
C	0.08929	2.071134	0.325644
C	-0.722726	1.091682	-0.487842
H	-2.069754	-0.813238	-1.556127
H	-2.437426	0.217727	0.494773
H	-1.213907	-1.097271	2.132471
H	1.241189	-1.180848	2.072305
H	2.475564	0.048389	0.365757
H	0.661525	-1.479982	-1.123968
H	1.275305	1.386242	-1.430999
H	0.110448	1.948508	1.402195
H	0.112352	3.10152	-0.011962
H	-1.237996	1.494415	-1.357289
