19

C	2.559788	-0.248297	-0.539123
C	1.135065	-0.088669	-0.050048
C	0.299838	-1.359467	-0.176859
O	-0.915522	-1.337039	0.524258
C	-2.007064	-0.746738	-0.139826
C	-1.972506	0.74775	-0.290456
C	-0.924422	1.569655	-0.227693
C	0.513639	1.250557	-0.037657
O	0.980182	0.616553	1.177757
H	2.584168	-0.543214	-1.594063
H	3.111619	0.68777	-0.427556
H	3.079454	-1.0204	0.038866
H	0.145956	-1.588608	-1.245019
H	0.878574	-2.186018	0.253879
H	-2.147416	-1.206547	-1.136964
H	-2.890328	-1.019813	0.45019
H	-2.951044	1.188013	-0.47848
H	-1.118005	2.631051	-0.365756
H	1.163709	2.072903	-0.341244
