19

C	-2.278281	-0.649964	0.101507
C	-0.861106	-0.117292	0.004819
C	-0.703103	1.261207	-0.692397
O	0.600842	1.730553	-0.300201
C	1.142036	0.712766	0.570071
C	-0.095609	0.201107	1.313111
C	1.482853	-0.457053	-0.362742
O	1.059418	-1.752403	0.090197
C	0.168674	-0.991693	-0.73428
H	-2.299621	-1.61343	0.620443
H	-2.92517	0.043325	0.649801
H	-2.716369	-0.798645	-0.892152
H	-0.758365	1.191797	-1.786331
H	-1.466236	1.972962	-0.351147
H	1.954627	1.153014	1.146667
H	0.086782	-0.67651	1.930287
H	-0.572359	0.991461	1.896894
H	2.340809	-0.428148	-1.026024
H	-0.058965	-1.415503	-1.708935
