19

O	-2.654281	-0.513648	-0.521355
C	-1.660933	-0.70103	0.489794
C	-0.538121	0.27207	0.168157
O	-1.059397	1.578086	0.075431
C	0.772123	0.187132	0.962425
C	1.294853	-1.035956	0.126475
C	2.638985	-0.345494	-0.174047
C	1.601974	0.791776	-0.227491
C	0.518147	-0.129687	-0.892828
H	-3.470924	-0.928664	-0.231234
H	-2.067501	-0.46451	1.484123
H	-1.298229	-1.737583	0.499892
H	-1.895936	1.490036	-0.399589
H	0.941102	0.368528	2.025628
H	1.100723	-2.088938	0.334709
H	3.368841	-0.311722	0.641699
H	3.129205	-0.612033	-1.116142
H	1.745356	1.852129	-0.425896
H	0.394611	-0.31562	-1.960718
