19

O	2.275762	-0.351423	-0.514951
C	0.99202	-0.081186	-0.002918
C	0.395726	-1.169975	0.94936
C	-0.803024	-1.387417	-0.016545
C	-1.994956	-0.424301	0.202277
C	-1.224669	0.693263	-0.55722
O	-0.604924	1.637842	0.318407
C	0.787233	1.376225	0.423866
C	-0.159912	-0.346148	-1.001155
H	2.901656	-0.331345	0.217549
H	1.058134	-2.038728	0.981188
H	0.155777	-0.859796	1.97107
H	-1.027478	-2.4184	-0.287656
H	-2.879423	-0.748828	-0.353967
H	-2.283313	-0.18621	1.229662
H	-1.783521	1.231798	-1.327307
H	1.368747	2.025393	-0.248836
H	1.097342	1.576732	1.45707
H	0.070867	-0.504741	-2.052409
