19

O	-1.769458	-2.077758	-0.212591
C	-1.964271	-0.891899	-0.243289
C	-1.467517	0.085326	0.81298
C	-0.686355	1.22119	0.138748
O	-1.263376	2.009243	-0.573396
C	0.821978	1.250424	0.337483
C	1.491277	0.129358	-0.444117
C	2.88033	-0.334565	-0.082271
C	1.700555	-1.241692	0.153748
H	-2.52813	-0.407052	-1.068197
H	-2.352042	0.544387	1.271067
H	-0.894909	-0.45604	1.565928
H	1.179617	2.225791	-0.005666
H	1.058194	1.146617	1.403605
H	1.267395	0.151827	-1.50736
H	3.564758	-0.570007	-0.889425
H	3.354135	0.115898	0.783875
H	1.564634	-2.105307	-0.486452
H	1.393034	-1.406848	1.180828
