19

C	-1.994272	1.592653	-0.00188
O	-0.681284	1.076868	-0.002586
C	-0.527433	-0.335344	0.000521
C	-1.097659	-0.985114	1.273849
C	-1.10212	-0.991307	-1.267503
C	0.997951	-0.582194	-0.001098
O	1.443513	-1.709921	-0.002229
C	1.877139	0.570031	-0.00052
C	2.675356	1.471055	3.9e-05
H	-2.561917	1.299362	0.8917
H	-1.894607	2.680727	-0.005012
H	-2.564741	1.29449	-0.89203
H	-0.744648	-0.454753	2.163221
H	-2.190809	-0.971111	1.268601
H	-0.766956	-2.024283	1.330435
H	-0.770547	-2.030359	-1.320712
H	-2.195258	-0.978326	-1.258004
H	-0.753096	-0.464603	-2.160609
H	3.370972	2.2746	0.00049
