19

O	3.059062	-1.553097	-0.267265
C	2.456113	-0.66682	0.285287
C	1.537159	0.279244	-0.381468
C	1.449556	1.705607	0.151659
C	0.314433	0.773057	0.390212
C	-1.009203	0.923774	-0.333278
C	-1.775728	-0.37727	-0.388977
C	-3.236936	-0.431311	-0.269862
O	-2.399752	-0.787863	0.831853
H	2.556654	-0.497934	1.385162
H	1.435297	0.134094	-1.451855
H	2.090258	1.968421	0.987101
H	1.336856	2.487766	-0.591269
H	0.220159	0.383036	1.400714
H	-1.623028	1.673636	0.179894
H	-0.836857	1.289488	-1.353776
H	-1.277908	-1.189761	-0.9212
H	-3.799334	0.493965	-0.148725
H	-3.78894	-1.252707	-0.724194
