19

C	-1.729047	1.516959	-0.416239
C	-1.121561	0.237089	0.077898
C	-1.876854	-1.051518	0.243586
C	-0.676484	-1.036366	-0.664689
C	0.579294	-1.143629	0.204423
O	1.796469	-0.78216	-0.416421
C	1.810203	0.6246	-0.488304
O	1.141491	1.101358	0.660499
C	0.131517	0.158547	0.967448
H	-2.436773	1.330202	-1.23036
H	-2.272662	2.031578	0.385091
H	-0.957605	2.201851	-0.781925
H	-1.84761	-1.601685	1.183357
H	-2.839582	-1.09098	-0.256519
H	-0.735135	-1.286048	-1.717638
H	0.74258	-2.079279	0.744646
H	2.845864	0.974637	-0.470503
H	1.305622	0.973397	-1.40499
H	-0.010782	0.158658	2.051471
