19

C	-2.411217	-0.193451	-0.395157
C	-1.241281	0.339243	0.437819
C	-0.750661	1.716701	0.028401
C	0.577279	1.800673	-0.028168
C	1.242425	0.502977	0.383351
O	2.333206	0.079583	-0.401095
C	0.052133	-0.476717	0.326695
C	0.207902	-1.905536	0.583994
O	0.142854	-1.409173	-0.76492
H	-2.707772	-1.19649	-0.072997
H	-3.280958	0.46196	-0.285343
H	-2.145293	-0.245374	-1.45323
H	-1.549933	0.362488	1.494426
H	-1.442971	2.52822	-0.170724
H	1.155876	2.681439	-0.28039
H	1.618081	0.586474	1.413902
H	1.949793	-0.451714	-1.11366
H	1.182416	-2.287965	0.883497
H	-0.647191	-2.505657	0.891035
