19

C	-2.228229	0.647444	0.953976
C	-1.554558	0.094854	-0.30227
O	-1.975114	-1.234522	-0.595785
C	-0.055301	0.163805	-0.201565
O	0.572399	1.451976	-0.305764
C	1.010637	0.386576	-1.17062
C	1.977639	-0.551171	-0.382538
C	2.151037	-0.097492	1.042943
C	0.874278	-0.785605	0.639402
H	-3.315524	0.588459	0.856301
H	-1.926785	0.075214	1.840269
H	-1.941136	1.690095	1.116795
H	-1.853591	0.694469	-1.169236
H	-1.930774	-1.743283	0.220803
H	0.993581	0.571205	-2.238216
H	2.612901	-1.286133	-0.857673
H	2.828164	-0.706797	1.63319
H	2.14987	0.958572	1.28061
H	0.552	-1.731899	1.053588
