19

C	-2.556539	0.173173	-0.433752
C	-1.313685	-0.271502	0.322436
O	-0.748389	-1.436886	-0.279962
C	0.647343	-1.291652	-0.375768
C	1.404006	-1.07075	0.889345
C	1.080726	0.11829	-0.036168
C	2.172958	0.922224	-0.692462
C	-0.20271	0.796736	0.311714
O	-0.376641	1.978833	0.480523
H	-2.317422	0.35868	-1.48456
H	-3.332371	-0.594599	-0.382555
H	-2.934736	1.098934	0.007779
H	-1.577052	-0.484526	1.370791
H	1.068454	-1.856615	-1.199517
H	0.886964	-1.167838	1.837858
H	2.450904	-1.354445	0.911642
H	2.506634	1.724792	-0.027427
H	3.036213	0.294596	-0.931822
H	1.820056	1.386328	-1.618752
