19

C	2.99936	-1.301634	-0.162976
C	1.756529	-0.690891	0.441912
C	1.553188	0.800283	0.458954
O	2.471221	1.640243	-0.174669
C	0.708616	-0.043617	-0.4728
C	-0.690995	-0.228693	-0.237063
C	-1.869805	-0.401339	-0.04525
C	-3.301683	-0.54434	0.206275
O	-4.065731	0.595249	-0.169916
H	3.787015	-1.415002	0.590983
H	2.791307	-2.293934	-0.575402
H	3.391557	-0.672342	-0.96584
H	1.341128	-1.221453	1.293838
H	1.043185	1.233891	1.318146
H	3.24617	1.718476	0.392599
H	1.011598	0.033782	-1.513875
H	-3.709091	-1.378615	-0.376257
H	-3.458839	-0.795926	1.268123
H	-3.619202	1.368573	0.19005
