19

C	0.598405	1.95489	-0.518246
C	-0.085293	0.733063	0.028206
C	-1.38405	0.796708	0.860543
C	-1.903137	-0.400475	0.019337
O	-2.983338	-0.906215	-0.096881
C	-0.616964	-0.517331	-0.734448
C	0.542423	-0.602391	0.264349
C	1.901777	-0.928444	-0.319295
O	2.964758	-0.520242	0.525867
H	1.397966	1.704505	-1.22124
H	-0.112989	2.599101	-1.045938
H	1.035625	2.551129	0.292504
H	-1.289045	0.66251	1.94235
H	-1.994607	1.683119	0.660768
H	-0.484974	-0.833386	-1.763163
H	0.364363	-1.091509	1.221016
H	2.00626	-2.01327	-0.421094
H	1.998755	-0.501713	-1.329819
H	2.908334	0.435041	0.630048
