19

O	-2.389791	-0.94976	-0.06126
C	-1.527323	0.011391	0.531733
C	-1.206831	1.232956	-0.39045
C	0.286274	0.999379	-0.607527
C	0.844784	0.620428	0.810063
C	2.199841	-0.000748	0.483876
O	1.85086	-0.805813	-0.659907
C	0.457185	-0.538162	-0.791864
C	-0.135613	-0.592518	0.648832
H	-3.264551	-0.557066	-0.141914
H	-1.922799	0.325173	1.508288
H	-1.786289	1.175781	-1.317429
H	-1.416209	2.195356	0.08749
H	0.835709	1.686679	-1.252944
H	0.782167	1.306716	1.656199
H	2.961315	0.739024	0.207478
H	2.597983	-0.635163	1.285327
H	0.040211	-1.096862	-1.627245
H	-0.025999	-1.49141	1.256108
