19

C	2.382866	-1.203003	-0.572498
C	1.504784	-0.183404	0.074365
C	0.757516	-0.319156	1.367542
C	0.007643	0.079171	0.101567
C	-1.17467	-0.665117	-0.459451
C	-2.463079	-0.294615	0.254332
O	-3.467415	0.07952	-0.292556
C	0.393438	1.518413	-0.230202
O	1.807968	1.19931	-0.159913
H	2.453912	-1.032556	-1.651019
H	3.394119	-1.155095	-0.153054
H	1.996134	-2.21151	-0.399496
H	0.574601	-1.337474	1.698825
H	0.92415	0.400291	2.165155
H	-1.307508	-0.480083	-1.530288
H	-1.02325	-1.745056	-0.318676
H	-2.409881	-0.387467	1.3636
H	0.116449	1.820048	-1.247523
H	0.10587	2.304525	0.478299
