19

C	2.525419	-0.040959	0.692663
C	1.330897	0.195024	-0.227799
C	0.133114	1.067312	0.296383
C	-0.251871	2.273557	-0.552691
C	-0.794185	-0.158859	0.154748
C	-1.936967	-0.608374	0.965467
O	-2.111755	-0.139174	-0.368356
C	0.356101	-0.99386	-0.391067
O	0.469134	-2.12451	-0.767057
H	2.202043	-0.368811	1.686372
H	3.179202	-0.815625	0.281228
H	3.113857	0.873694	0.815265
H	1.673055	0.534219	-1.2136
H	0.268837	1.362087	1.342101
H	-1.194704	2.709882	-0.209632
H	0.520914	3.047127	-0.503341
H	-0.384623	1.991105	-1.602148
H	-2.099238	-1.675049	1.111384
H	-2.31342	0.0478	1.749456
