19

O	-3.944481	0.065877	-0.272744
C	-2.987536	-0.364571	0.316443
C	-1.649753	-0.685208	-0.318303
C	-0.506952	0.00754	0.402531
C	-0.142813	1.432162	0.070341
C	0.78274	0.303433	-0.326119
C	2.087192	0.132387	0.37332
C	3.370805	0.151313	-0.339396
O	2.80467	-1.079356	0.116077
H	-3.030351	-0.556793	1.414874
H	-1.507775	-1.774856	-0.267802
H	-1.691759	-0.399482	-1.373555
H	-0.397048	-0.276402	1.446917
H	-0.694236	1.932132	-0.718642
H	0.165245	2.085902	0.879724
H	0.809168	0.041144	-1.380131
H	2.087999	0.431723	1.423989
H	3.379607	0.289602	-1.420142
H	4.275558	0.472519	0.175199
