19

C	-3.285383	0.7458	0.229857
O	-1.930029	0.700483	-0.150157
C	-1.405425	-0.606489	-0.176715
C	0.054557	-0.52425	-0.572527
C	0.875596	-1.812534	-0.367229
O	1.642303	-1.215525	0.699091
C	0.997361	0.073843	0.512629
C	1.91487	1.117627	0.08751
C	2.670024	1.980561	-0.272935
H	-3.439987	0.340083	1.242122
H	-3.592545	1.794081	0.218606
H	-3.923595	0.180088	-0.467122
H	-1.502947	-1.085694	0.81397
H	-1.957898	-1.237192	-0.895515
H	0.154855	-0.054433	-1.551439
H	0.312357	-2.689774	-0.024122
H	1.508866	-2.104328	-1.213297
H	0.474875	0.384976	1.425818
H	3.338227	2.745182	-0.584039
