19

O	2.634381	-0.025103	-0.513794
C	1.233492	0.036257	-0.593522
C	0.4862	-1.037947	0.23342
C	-0.863554	-1.519174	-0.322403
C	-2.041883	-0.566077	-0.018714
C	-1.841837	0.898791	-0.341022
C	-0.730816	1.607208	-0.129161
C	0.544197	1.020799	0.397505
O	0.315896	-0.084526	1.320339
H	2.872196	-0.127866	0.415258
H	0.979044	0.138718	-1.649427
H	1.118602	-1.880288	0.537181
H	-0.764827	-1.666379	-1.404935
H	-1.106622	-2.499772	0.101737
H	-2.922908	-0.932255	-0.55637
H	-2.281046	-0.652083	1.048084
H	-2.709194	1.416723	-0.743912
H	-0.705485	2.662129	-0.390556
H	1.203231	1.778964	0.833962
