19

C	-3.727069	-0.364508	-0.62976
C	-2.940071	0.009212	0.639609
C	-1.509025	0.166001	0.403527
C	-0.333184	0.306067	0.184764
C	1.09513	0.416024	-0.057498
O	1.395519	1.758844	-0.36969
C	2.002254	-0.274577	1.010948
O	2.418526	-1.283903	0.075518
C	1.693545	-0.672654	-1.004932
H	-3.369471	-1.310895	-1.044372
H	-4.791568	-0.468902	-0.400197
H	-3.613018	0.405179	-1.397662
H	-3.338279	0.942037	1.058728
H	-3.096983	-0.757339	1.409343
H	2.343888	1.81864	-0.531799
H	2.834351	0.363016	1.342798
H	1.492521	-0.695343	1.883084
H	2.357039	-0.251482	-1.774057
H	0.979687	-1.357828	-1.472437
