19

C	1.887641	0.656741	0.408279
C	1.805628	-0.883057	0.230121
O	0.725673	-1.30118	-0.591168
C	-0.570112	-1.080129	-0.11272
C	-0.930807	0.019225	0.936098
O	-2.302196	-0.018559	0.400126
C	-1.427829	0.018375	-0.792233
C	-0.579129	1.125136	-0.102021
C	0.883972	1.409676	-0.480425
H	1.701562	0.926581	1.454305
H	2.904978	0.994051	0.183232
H	2.695929	-1.25532	-0.28382
H	1.759274	-1.385196	1.207196
H	-1.10081	-2.02376	0.046375
H	-0.820715	0.013566	2.021298
H	-1.906546	0.018492	-1.771934
H	-1.169241	2.029934	0.060878
H	1.058866	1.160577	-1.5321
H	1.072706	2.48319	-0.379689
