19

O	-2.900295	-0.525373	0.259104
C	-1.973558	0.118556	-0.605394
C	-0.568634	0.11586	-0.056634
C	-0.140902	1.25775	0.838629
C	0.477267	1.114571	-0.532257
C	1.795572	0.376295	-0.600325
O	2.272274	-0.107557	0.66437
C	1.591003	-1.026281	-0.202436
C	0.121295	-1.246915	0.12695
H	-2.843365	-0.087511	1.11531
H	-2.021075	-0.442778	-1.545952
H	-2.281369	1.153981	-0.825825
H	-0.848897	2.070335	0.974632
H	0.494729	1.050132	1.690362
H	0.258955	1.846735	-1.301311
H	2.566246	0.700059	-1.29411
H	2.201138	-1.852231	-0.561622
H	-0.302324	-1.96956	-0.580209
H	-0.012139	-1.664721	1.129739
