19

C	-3.05654	-0.011601	-0.0493
C	-1.696814	-0.369188	-0.661644
C	-0.597814	-0.499383	0.381984
C	0.056842	0.743686	1.044799
O	1.230543	-0.102402	1.37983
C	0.909184	-0.53933	-0.018079
C	1.728829	-1.617666	-0.64456
C	0.821399	0.995314	-0.280429
O	1.236043	1.852318	-0.98944
H	-3.830233	0.051844	-0.819824
H	-3.372031	-0.764498	0.680935
H	-3.019217	0.954343	0.46518
H	-1.777351	-1.318598	-1.205901
H	-1.417313	0.386939	-1.406268
H	-0.803981	-1.260355	1.141659
H	-0.314683	1.41307	1.817232
H	1.384353	-1.798393	-1.667544
H	2.781355	-1.323385	-0.684871
H	1.64589	-2.551287	-0.080334
