19

C	2.534784	-1.31288	-0.259399
C	1.006288	-1.347128	-0.314866
C	0.34758	-0.037903	0.188196
O	0.778794	0.244888	1.499115
C	0.738939	1.13142	-0.728737
O	1.260838	2.128081	-0.298224
C	-1.118547	-0.127684	0.092005
C	-2.316953	-0.179056	-0.022512
C	-3.76631	-0.249072	-0.131425
H	2.949781	-2.27799	-0.5632
H	2.951918	-0.549154	-0.925307
H	2.873091	-1.093867	0.755631
H	0.650534	-1.543798	-1.332953
H	0.619436	-2.155146	0.313875
H	1.0752	1.169439	1.481234
H	0.489241	1.005198	-1.800296
H	-4.076902	-1.066362	-0.791191
H	-4.223625	-0.420114	0.849089
H	-4.180417	0.681869	-0.53358
