19

O	-3.07795	-0.138128	-0.21539
C	-1.685394	-0.154805	-0.354206
C	-0.855733	0.980051	0.18092
C	0.521834	1.297942	-0.4008
C	1.426703	0.087514	-0.111503
O	2.77617	0.330809	0.148314
C	1.130083	-1.222772	-0.763923
C	0.604498	-0.949562	0.640119
C	-0.794588	-0.410516	0.833321
H	-3.297471	0.230428	0.646307
H	-1.438323	-0.595958	-1.313316
H	-1.401898	1.788549	0.658657
H	0.493754	1.548081	-1.467268
H	0.944882	2.168254	0.115094
H	2.834011	0.861683	0.951048
H	0.45655	-1.280083	-1.611132
H	1.971852	-1.904266	-0.820154
H	1.044777	-1.523549	1.447388
H	-1.278317	-0.601696	1.786423
