19

C	2.078955	-1.305087	-0.521907
C	1.012951	-0.332557	-0.029412
C	0.193916	-0.780428	1.219898
C	-1.022017	-0.754281	0.277963
C	-2.052364	0.341388	0.501015
O	-2.832888	0.527082	-0.661528
O	-0.186502	-0.415255	-0.863603
C	1.525435	1.033397	0.03736
C	1.955375	2.154374	0.100533
H	2.942923	-1.297045	0.149518
H	1.667061	-2.316913	-0.564918
H	2.414423	-1.019066	-1.522322
H	0.474127	-1.765007	1.596237
H	0.169494	-0.064211	2.04187
H	-1.523625	-1.713815	0.107833
H	-2.735014	0.061442	1.311792
H	-1.536031	1.269422	0.795854
H	-2.201403	0.662553	-1.379371
H	2.329663	3.147192	0.151847
