19

C	-2.134555	-1.580227	-0.19949
C	-1.218866	-0.414995	-0.007806
C	0.125679	-0.398677	0.098842
C	1.034604	-1.534673	0.046618
O	2.24628	-1.423597	0.137688
C	0.665445	1.005086	0.337647
O	1.772399	1.342356	-0.47395
C	-0.540075	1.899587	-0.007127
C	-1.77725	0.984899	0.129288
H	-2.864545	-1.628178	0.618275
H	-2.714907	-1.456986	-1.122376
H	-1.613848	-2.537934	-0.248813
H	0.580259	-2.537801	-0.087251
H	0.935741	1.105604	1.403591
H	2.428345	0.647314	-0.322915
H	-0.598056	2.798642	0.609442
H	-0.414243	2.211781	-1.048049
H	-2.259985	1.089104	1.112122
H	-2.558091	1.192384	-0.611756
