19

C	2.3312	-0.648	-0.73148
C	0.987783	-0.448927	-0.112717
O	0.915105	0.033362	1.248968
C	0.18452	0.729196	0.220484
C	0.35539	2.201193	0.048462
C	-1.13803	-0.081021	-0.069271
O	-2.170427	0.452598	-0.819433
C	-1.245347	-1.318707	0.775531
C	-0.298802	-1.290193	-0.412216
H	2.798971	-1.565702	-0.35655
H	2.244747	-0.736105	-1.81955
H	2.991433	0.19127	-0.497718
H	-0.120661	2.748125	0.870956
H	1.414455	2.471519	0.031501
H	-0.111592	2.526303	-0.886
H	-2.824633	0.819029	-0.213771
H	-0.862573	-1.350677	1.787911
H	-2.149185	-1.891237	0.588959
H	-0.39867	-1.96145	-1.254772
