19

C	2.172545	-0.652043	0.046157
C	0.692935	-0.381198	0.124471
O	-0.050029	-1.549041	-0.339914
C	-1.384576	-1.104739	-0.621877
C	-1.357773	0.411631	-0.283952
C	-1.139142	0.490318	1.218166
C	0.086279	0.009005	1.469195
C	0.084023	0.71936	-0.785948
O	0.554176	2.026323	-0.600777
H	2.727002	0.265216	0.265534
H	2.472624	-1.423136	0.762044
H	2.443754	-0.991882	-0.95709
H	-1.610546	-1.274773	-1.682143
H	-2.104864	-1.663456	-0.012641
H	-2.174241	0.995545	-0.706654
H	-1.895418	0.774654	1.93963
H	0.539863	-0.183593	2.43381
H	0.23033	0.483943	-1.843693
H	0.412572	2.245218	0.32945
