19

C	2.444373	0.487993	0.385815
O	1.693658	-0.686946	0.143235
C	0.521938	-0.450175	-0.588198
C	-0.30743	-1.73878	-0.849908
C	-1.502775	-1.119804	-0.115652
C	-1.139325	-0.740051	1.27006
C	-0.671727	0.176692	0.153878
C	-1.135326	1.558677	0.030682
O	-0.517908	2.443188	-0.518594
H	1.865776	1.235849	0.94503
H	3.317853	0.19583	0.973084
H	2.779416	0.950861	-0.55398
H	0.739089	0.111778	-1.506298
H	-0.48442	-1.919126	-1.911255
H	0.104514	-2.6422	-0.392353
H	-2.532035	-1.149922	-0.450917
H	-1.9401	-0.339675	1.884143
H	-0.376997	-1.291437	1.81273
H	-2.137462	1.7508	0.482623
