19

O	2.455916	-1.231875	-0.062407
C	1.301472	-0.494683	0.338481
C	0.029369	-1.080698	-0.289463
C	-1.289117	-0.613662	0.337829
O	-2.382418	-1.357952	-0.208994
C	-1.586071	0.860826	0.244364
C	-0.762474	1.889585	-0.002612
C	0.685791	1.916108	-0.206883
C	1.577098	0.929068	-0.060662
H	2.326542	-2.147879	0.202602
H	1.201665	-0.535169	1.439393
H	0.029899	-0.862406	-1.363923
H	0.054465	-2.171649	-0.183109
H	-1.292584	-0.899115	1.39954
H	-2.483251	-1.082073	-1.127299
H	-2.640918	1.078914	0.398562
H	-1.227323	2.872797	-0.041701
H	1.077589	2.891211	-0.486086
H	2.629519	1.134714	-0.233089
