19

C	-1.778522	-0.285432	-0.740929
O	-0.729001	-1.237299	-0.62512
C	0.029509	-1.06106	0.577734
O	1.394943	-1.098262	0.269571
C	1.974409	0.11099	-0.229092
C	0.95612	1.114791	-0.784574
C	-0.096689	1.403982	0.282015
C	-1.485183	0.804478	0.268217
C	-0.44279	0.247274	1.194397
H	-1.804626	0.069785	-1.779499
H	-2.750808	-0.751213	-0.521692
H	-0.129609	-1.925283	1.231736
H	2.535633	0.589792	0.587383
H	2.693876	-0.185886	-0.999089
H	1.485865	2.034021	-1.053137
H	0.510152	0.722304	-1.702081
H	-0.028314	2.375385	0.760761
H	-2.310362	1.399446	0.641612
H	-0.470468	0.345999	2.27178
