19

C	-0.759702	-1.288975	-1.301538
C	-0.928748	-0.177902	-0.285298
C	-2.224824	0.601038	-0.400018
C	-0.349484	-0.374238	1.094291
O	0.265182	-1.586275	1.388758
C	0.322666	0.616667	0.15841
O	0.162039	1.959103	0.543582
C	1.614795	0.291398	-0.381395
C	2.709542	0.052531	-0.821661
H	-0.735366	-0.88277	-2.318598
H	0.15458	-1.856656	-1.131063
H	-1.603975	-1.984616	-1.237939
H	-3.079286	-0.061508	-0.222924
H	-2.269242	1.421817	0.318047
H	-2.338211	1.023558	-1.405408
H	-0.87869	0.096943	1.923623
H	1.155309	-1.40478	1.710816
H	0.199884	2.500399	-0.253465
H	3.671769	-0.158124	-1.218563
