19

C	-2.652221	-0.636848	-0.014658
C	-1.168067	-0.719226	-0.307894
C	-0.20719	-0.513377	0.861476
C	1.302658	-0.764292	0.71265
C	1.557556	-0.935159	-0.800246
C	1.112071	0.540045	-0.723787
O	1.822565	0.617763	0.56884
C	-0.352894	0.536162	-0.235763
O	-0.984392	1.762456	-0.079996
H	-3.212774	-0.393123	-0.92284
H	-3.023634	-1.593867	0.365966
H	-2.868239	0.13971	0.72224
H	-0.918246	-1.457226	-1.063638
H	-0.623341	-0.352847	1.849391
H	1.817582	-1.342676	1.478966
H	2.624751	-1.002225	-1.00963
H	0.999413	-1.665459	-1.386373
H	1.40316	1.308233	-1.440006
H	-0.455526	2.273897	0.544503
