19

C	2.015734	-0.198486	0.904436
O	2.386674	0.192289	-0.413589
C	0.979949	0.096665	-0.104807
C	0.256428	-1.032795	-0.816282
C	-0.942401	-1.585241	-0.028342
O	-1.660569	-0.614011	0.707632
C	-2.083094	0.525494	-0.016904
C	-1.029885	1.604208	-0.118095
C	0.28891	1.415444	-0.095318
H	2.226853	-1.235356	1.167139
H	2.225148	0.527919	1.688475
H	-0.071412	-0.659352	-1.793179
H	0.96355	-1.845446	-1.01083
H	-1.61369	-2.122392	-0.718706
H	-0.600097	-2.302823	0.724124
H	-2.459498	0.242148	-1.015556
H	-2.942724	0.926689	0.532521
H	-1.41201	2.621444	-0.165391
H	0.961192	2.269201	-0.109061
