19

C	-3.431041	-0.447725	-0.109826
C	-2.054727	0.024668	-0.068246
C	-0.91624	0.420968	-0.053513
C	0.437547	0.926835	0.020386
C	0.614853	2.198	0.82581
O	1.205927	0.875439	-1.202652
C	1.571994	-0.011979	-0.146473
C	1.346028	-1.491234	-0.37889
O	1.108322	-2.17213	0.842498
H	-3.83424	-0.582706	0.899744
H	-4.077294	0.265183	-0.633227
H	-3.504869	-1.40896	-0.629516
H	0.277756	2.05133	1.85633
H	1.666409	2.494712	0.832898
H	0.025792	3.009124	0.387743
H	2.498276	0.246892	0.369735
H	0.52352	-1.614322	-1.095002
H	2.243097	-1.943457	-0.814068
H	0.257076	-1.861472	1.17111
