19

C	2.32424	-0.110605	0.824033
C	1.319983	0.203072	-0.302467
C	0.79528	-1.076166	-0.915099
C	-0.349619	-1.650582	-0.543402
C	-1.199042	-1.040699	0.509509
O	-2.075751	0.046666	0.115749
C	-0.924706	0.343681	0.918582
C	0.172476	1.126284	0.172938
O	-0.389873	1.830865	-0.916659
H	3.12997	-0.757296	0.46331
H	2.776358	0.808684	1.211093
H	1.834639	-0.629753	1.654985
H	1.843542	0.768938	-1.081211
H	1.416502	-1.552529	-1.67014
H	-0.686391	-2.580908	-0.991009
H	-1.669598	-1.720012	1.218916
H	-1.163778	0.661418	1.931433
H	0.594352	1.875251	0.854183
H	-1.182283	1.336048	-1.168845
