19

O	-2.764171	-0.649992	-0.003418
C	-1.872645	0.254788	-0.640735
C	-0.490469	0.219228	-0.043826
C	-0.133494	1.065435	1.161827
C	0.513295	1.354713	-0.169115
C	1.8911	0.767314	-0.497677
C	1.716431	-0.745518	-0.459585
O	1.31336	-1.268932	0.814173
C	0.305475	-1.064602	-0.187291
H	-2.732462	-0.463596	0.941267
H	-1.849972	-0.056293	-1.691923
H	-2.256323	1.287489	-0.616295
H	-0.877132	1.77928	1.504371
H	0.457954	0.601956	1.94123
H	0.230424	2.277384	-0.665487
H	2.193438	1.065971	-1.508067
H	2.676002	1.102426	0.189052
H	2.384446	-1.388927	-1.028279
H	-0.198035	-1.962443	-0.533492
