19

C	0.924912	1.755135	0.37307
C	0.955096	0.276253	-0.003027
C	2.359924	-0.150426	-0.431068
C	0.272366	-0.794321	0.914328
C	-1.144711	-0.27349	1.20145
C	-1.450665	0.146717	-0.257421
O	-2.421789	0.676509	-0.718574
C	-0.151346	-0.308888	-0.942992
O	0.01704	-1.60475	-0.28342
H	1.296542	2.362247	-0.459206
H	-0.072655	2.123895	0.623184
H	1.579489	1.943946	1.231119
H	3.06952	0.005789	0.38953
H	2.384257	-1.204058	-0.713619
H	2.703898	0.448002	-1.28137
H	0.815546	-1.322007	1.69896
H	-1.805905	-1.078138	1.53221
H	-1.225536	0.562915	1.899574
H	-0.10062	-0.322542	-2.030478
