19

C	-0.762286	1.765689	0.784745
C	0.0621	0.788185	-0.01652
O	0.763203	1.426301	-1.043965
C	-0.407342	-0.615396	-0.289635
C	-1.717574	-1.169193	0.22336
O	-2.849916	-0.603251	-0.421623
C	0.759485	-0.383914	0.682456
C	2.099411	-0.699196	0.296398
C	3.23155	-0.886681	-0.071854
H	-0.113238	2.528125	1.225792
H	-1.484021	2.263073	0.130569
H	-1.317538	1.273136	1.585872
H	1.68224	1.127949	-1.017372
H	-0.101229	-0.985838	-1.265326
H	-1.712785	-2.266922	0.132894
H	-1.843242	-0.940439	1.286078
H	-2.76647	-0.769393	-1.366166
H	0.531141	-0.515608	1.73671
H	4.226775	-1.09545	-0.378054
