19

C	-2.953911	-0.402779	-0.372319
C	-1.962903	-0.02749	0.736456
C	-0.550945	0.056042	0.23664
C	0.254915	-1.155324	-0.324547
C	1.479067	-0.287472	-0.029944
O	2.803762	-0.657984	0.03669
C	1.006673	1.154819	-0.314328
O	-0.335196	1.092577	-0.786345
C	0.740482	0.527738	1.015361
H	-3.978438	-0.41527	0.010139
H	-2.902634	0.318521	-1.192376
H	-2.735658	-1.394647	-0.781103
H	-2.234313	0.942245	1.169632
H	-1.999722	-0.762433	1.549864
H	0.211955	-2.015396	0.34912
H	0.038364	-1.452277	-1.355902
H	3.165626	-0.658746	-0.856825
H	1.65315	1.9679	-0.618874
H	0.952888	0.800158	2.039642
