19

C	0.714635	2.198392	-0.304006
C	0.439409	0.769689	0.104746
C	-0.688755	0.462922	1.135125
C	-1.315911	-0.576272	0.168226
O	-2.610715	-0.160323	-0.222402
C	-0.192044	-0.279428	-0.879171
C	1.101743	-1.115073	-0.759599
O	1.280017	-1.451192	0.626659
C	1.69077	-0.152952	0.187314
H	1.174748	2.762602	0.516828
H	1.397748	2.243753	-1.160626
H	-0.210663	2.711056	-0.585563
H	-0.365266	0.072796	2.101054
H	-1.365279	1.308106	1.28396
H	-1.316949	-1.605937	0.543154
H	-2.945666	-0.795557	-0.863773
H	-0.503807	0.006077	-1.884697
H	1.560221	-1.782197	-1.481348
H	2.721414	0.127764	0.381147
