19

O	-3.268095	0.503251	-0.004571
C	-2.2596	-0.006004	0.412454
C	-1.270778	-0.775581	-0.444441
C	0.150799	-0.29934	-0.247372
C	1.400677	-1.086618	-0.711256
C	1.96143	-0.309345	0.498495
C	1.961106	1.159683	0.029229
C	0.521055	1.170739	-0.572763
O	0.647038	-0.428013	1.130918
H	-1.984891	0.049374	1.487738
H	-1.330799	-1.832026	-0.149311
H	-1.569705	-0.689718	-1.493286
H	1.305914	-2.153573	-0.505833
H	1.811114	-0.901148	-1.707407
H	2.783943	-0.671224	1.114403
H	2.071616	1.846287	0.870725
H	2.744217	1.373813	-0.702907
H	-0.145088	1.872673	-0.066002
H	0.494013	1.38244	-1.644972
