19

C	-2.296087	-0.080661	-0.161905
C	-1.567789	1.018222	0.682657
C	-0.219196	0.532757	0.118778
C	0.968161	1.376615	-0.288747
O	2.008682	0.438012	-0.544845
C	1.894199	-0.592418	0.434908
C	0.400817	-0.761531	0.71279
O	-0.29255	-1.603081	-0.237881
C	-0.942885	-0.461667	-0.827268
H	-2.723733	-0.904895	0.412472
H	-3.053338	0.30432	-0.848699
H	-1.817913	2.031099	0.35377
H	-1.686681	0.974226	1.768643
H	0.812135	1.956129	-1.203475
H	1.247418	2.074618	0.520642
H	2.357481	-1.498076	0.036037
H	2.409678	-0.30163	1.365557
H	0.179798	-1.044066	1.747747
H	-0.877228	-0.459079	-1.918169
