19

C	-2.660907	-0.535187	-0.342726
C	-1.181077	-0.657405	-0.02494
O	-0.860837	0.009698	1.231842
C	0.227971	0.867007	0.860065
C	-0.275024	1.532346	-0.448427
C	-0.18324	0.056981	-0.962881
C	1.06549	-0.024174	-0.064029
C	2.486066	-0.075138	-0.371748
O	1.799371	-1.170291	0.27568
H	-2.907571	-1.121603	-1.234354
H	-3.252199	-0.922145	0.49249
H	-2.959297	0.50237	-0.515308
H	-0.911232	-1.717317	0.070385
H	0.605606	1.402016	1.728905
H	-1.256548	2.004034	-0.4024
H	0.458313	2.188348	-0.919863
H	-0.181811	-0.216444	-2.016533
H	2.817095	-0.273832	-1.3902
H	3.203693	0.452734	0.254822
