19

C	-2.816052	-0.537249	-0.835378
C	-1.745931	-0.705984	0.211132
O	-1.636593	0.342671	1.198302
C	-0.56222	0.15528	0.293824
C	-0.065413	1.306843	-0.605634
C	1.368175	0.999393	-0.142919
C	1.725118	-0.426914	-0.428158
O	3.034663	-0.8605	-0.20549
C	0.843275	-0.144063	0.7649
H	-3.80649	-0.729583	-0.40947
H	-2.810791	0.477476	-1.241624
H	-2.661591	-1.244379	-1.657752
H	-1.663647	-1.707941	0.637467
H	-0.260953	1.237921	-1.681279
H	-0.436614	2.264035	-0.231377
H	2.133967	1.738598	0.062759
H	1.325302	-0.934883	-1.303277
H	3.38552	-0.404387	0.567011
H	1.129031	-0.438066	1.768443
