19

C	-1.855023	1.100656	0.927875
C	-0.705353	0.566012	0.109919
C	0.293316	1.573253	-0.48078
C	1.611872	0.806354	-0.706532
C	1.540061	-0.412039	0.229538
O	2.487102	-1.022716	0.663078
C	0.105743	-0.665482	0.535335
C	-0.85306	-0.691377	-0.670079
O	-2.049159	-1.387359	-0.515437
H	-1.487834	1.645308	1.804164
H	-2.459298	1.794583	0.331866
H	-2.50883	0.294227	1.263575
H	-0.094643	2.040164	-1.392376
H	0.448905	2.374519	0.250177
H	1.705392	0.441248	-1.737184
H	2.509577	1.390791	-0.497321
H	-0.161306	-1.283456	1.383885
H	-0.418799	-0.751889	-1.668877
H	-1.862051	-2.329147	-0.590702
