19

C	0.645913	-0.928866	1.17283
C	1.287911	0.404373	0.82055
C	0.491146	1.419524	0.005763
C	-1.027446	1.437168	-0.142599
O	-1.715702	0.335541	0.418286
C	-1.48079	-0.899338	-0.226423
C	-0.016084	-1.35346	-0.157646
O	0.759197	-0.741945	-1.200697
C	1.372777	0.409855	-0.682052
H	1.429685	-1.636629	1.461558
H	-0.085241	-0.870522	1.981345
H	2.099062	0.764765	1.442385
H	0.911773	2.422521	0.037583
H	-1.423393	2.312448	0.381531
H	-1.287497	1.541956	-1.209535
H	-2.1138	-1.626065	0.294429
H	-1.787636	-0.861434	-1.283343
H	0.023989	-2.433545	-0.333704
H	2.244531	0.702196	-1.255504
