19

O	-2.032535	-1.214072	-0.107992
C	-0.736273	-0.643962	-0.346682
C	0.328492	-1.619658	0.157036
C	1.770441	-1.197008	0.149195
C	2.307947	0.018908	-0.023772
C	1.652509	1.309643	-0.218148
C	0.363989	1.625459	-0.043992
C	-0.752509	0.715876	0.38296
O	-1.963317	1.398144	0.10812
H	-2.219719	-1.852422	-0.801632
H	-0.606612	-0.447868	-1.419039
H	0.045535	-1.924422	1.175105
H	0.241095	-2.538661	-0.440847
H	2.462866	-2.020531	0.312661
H	3.394755	0.069852	-0.012084
H	2.320683	2.115544	-0.512569
H	0.036211	2.644977	-0.22365
H	-0.669502	0.510768	1.466903
H	-2.646074	0.714641	0.114546
