19

C	1.397829	1.93473	-0.611634
C	1.324072	0.430553	-0.736955
C	1.435258	-0.479326	0.432641
C	2.210076	-1.774895	0.371335
C	0.085512	-0.3755	-0.28107
C	-1.031592	0.283581	0.407966
O	-0.945956	1.140065	1.268985
C	-2.447903	-0.162977	0.011053
O	-2.688545	-1.018165	-0.799737
H	0.900889	2.426541	-1.45453
H	0.928978	2.282617	0.310524
H	2.444935	2.257099	-0.608791
H	1.731346	0.036896	-1.666151
H	1.429389	0.020868	1.398658
H	3.269693	-1.603884	0.591155
H	1.830269	-2.502066	1.096369
H	2.145639	-2.227821	-0.623377
H	-0.211726	-1.19483	-0.92497
H	-3.232917	0.392392	0.567132
