19

C	-3.351877	-0.192333	-0.452413
C	-2.116951	0.160581	0.357454
O	-1.018734	-0.57682	-0.174182
C	0.197295	-0.39868	0.517619
C	1.183442	-1.478321	0.170291
C	2.353359	-0.995172	-0.250408
C	2.389422	0.509275	-0.2908
C	0.952734	0.892629	0.091465
O	0.471262	1.993335	0.033737
H	-3.552155	-1.266677	-0.404807
H	-4.224059	0.342571	-0.064626
H	-3.214727	0.084727	-1.501474
H	-1.908031	1.235545	0.311122
H	-2.257428	-0.107037	1.418665
H	0.008378	-0.355326	1.606382
H	0.929537	-2.526737	0.268124
H	3.204431	-1.602593	-0.536982
H	3.088144	0.947157	0.435043
H	2.661148	0.928378	-1.267134
