19

C	-2.178981	1.320502	-0.250913
C	-1.878438	-0.118474	0.114201
O	-2.561603	-1.044736	-0.253731
C	-0.627468	-0.354109	0.972889
C	0.625763	-0.203836	0.157831
C	1.191613	-1.197028	-0.809255
C	2.061204	-0.661959	0.314837
C	2.421814	0.784737	0.006222
O	1.024919	1.126558	-0.217906
H	-2.432254	1.884177	0.655315
H	-1.288634	1.795479	-0.675693
H	-3.014282	1.362811	-0.9508
H	-0.598211	0.355249	1.808396
H	-0.683795	-1.372257	1.365528
H	0.857604	-2.220944	-0.675631
H	1.376788	-0.901795	-1.838659
H	2.524574	-1.292268	1.061587
H	2.816762	1.338196	0.865241
H	3.041881	0.977781	-0.877058
