19

C	-2.322668	-0.424726	-0.33577
C	-0.869232	-0.164534	0.001235
C	-0.61751	0.913466	1.117745
C	0.250396	1.700969	0.139154
C	1.306016	0.797578	-0.4286
O	1.79034	-0.297851	0.310529
C	1.103689	-1.476145	-0.047284
O	-0.262498	-1.429608	0.282526
C	-0.077519	0.71185	-0.994949
H	-2.813316	-0.941551	0.494761
H	-2.851471	0.513735	-0.525933
H	-2.401262	-1.056803	-1.225822
H	-1.538389	1.436423	1.385813
H	-0.123948	0.545232	2.019709
H	0.344572	2.778384	0.085808
H	2.068984	1.269757	-1.041861
H	1.225986	-1.653669	-1.128722
H	1.545492	-2.297425	0.521283
H	-0.318412	0.874831	-2.038673
