19

C	2.001773	-1.818961	-0.23444
C	1.368679	-0.477655	-0.531797
C	1.310148	0.632221	0.519838
C	1.546677	2.07686	0.136414
C	0.072406	-0.078775	0.086272
C	-0.981318	-0.861558	0.853914
C	-1.952284	-0.067972	-0.026743
O	-3.124644	0.032913	-0.18691
O	-0.952461	0.602975	-0.692082
H	1.616312	-2.599326	-0.899571
H	3.088555	-1.777265	-0.362577
H	1.802759	-2.131719	0.796021
H	1.500219	-0.118315	-1.550356
H	1.67391	0.351073	1.507112
H	1.093571	2.303304	-0.832318
H	1.10601	2.757239	0.872601
H	2.617731	2.295218	0.074427
H	-1.009109	-1.939896	0.684109
H	-1.069613	-0.652377	1.921753
