19

C	3.098907	0.182929	-0.347311
C	1.612762	-0.082205	-0.44726
C	0.898182	-0.777084	0.660759
C	-0.409883	-1.503072	0.335089
C	-1.246198	-0.488624	-0.468005
O	-2.629485	-0.589977	-0.263742
C	-0.72237	0.874397	0.029236
O	-1.453234	1.831695	0.152967
C	0.684644	0.732465	0.459941
H	3.400818	0.354307	0.690843
H	3.670285	-0.671697	-0.724943
H	3.385824	1.06407	-0.930136
H	1.259838	-0.263807	-1.459301
H	1.482886	-1.119423	1.508031
H	-0.247084	-2.443759	-0.199316
H	-0.954927	-1.728122	1.257411
H	-1.013739	-0.572494	-1.543955
H	-2.935023	0.324096	-0.148661
H	1.116612	1.490248	1.101533
