19

C	2.114987	1.674363	-0.380266
C	1.631073	0.442779	0.349406
O	1.775671	-0.705068	-0.45667
C	0.850988	-1.634914	0.080111
C	-0.34151	-0.747185	0.501463
C	-1.456747	-0.703389	-0.559195
C	-2.539091	0.21077	-0.222017
C	-3.437788	0.952495	0.070801
O	0.243777	0.543972	0.643239
H	3.182722	1.585699	-0.59679
H	1.563814	1.788962	-1.316549
H	1.953291	2.558734	0.240684
H	2.184963	0.298214	1.296855
H	0.604697	-2.367168	-0.692381
H	1.276735	-2.159285	0.94864
H	-0.764	-1.06484	1.462138
H	-1.004147	-0.419771	-1.51737
H	-1.858624	-1.718041	-0.682727
H	-4.226517	1.616753	0.323131
