19

C	-2.935854	-0.261384	0.0739
C	-1.740739	0.50077	-0.516514
C	-0.4142	0.017786	-0.00111
C	0.190914	0.423348	1.33601
C	0.955565	0.693765	0.0825
O	1.372703	1.969511	-0.24113
C	1.61606	-0.616616	-0.476474
O	1.308053	-1.716975	0.392096
C	0.312482	-1.264471	-0.54155
H	-3.881133	0.10705	-0.336862
H	-2.870444	-1.33231	-0.146055
H	-2.969683	-0.149604	1.162043
H	-1.762833	0.417489	-1.612438
H	-1.83757	1.570312	-0.292537
H	-0.262228	1.317694	1.754053
H	0.524832	-0.314146	2.055334
H	1.300551	2.085819	-1.195398
H	2.499796	-0.689117	-1.101313
H	-0.092708	-1.992664	-1.235128
