19

C	-2.392243	0.028271	0.38798
C	-0.93714	-0.022651	-0.028401
C	-0.468952	-1.275768	-0.850428
C	0.74764	-1.413577	0.084087
O	1.82887	-0.529158	-0.294212
C	1.329966	0.534549	0.556406
C	0.69362	1.669902	-0.230894
O	-0.59002	1.215501	-0.653093
C	0.161043	-0.339285	1.036549
H	-3.030951	0.181621	-0.487785
H	-2.695053	-0.904013	0.874272
H	-2.563222	0.857228	1.081919
H	-1.163924	-2.114888	-0.743031
H	-0.252017	-1.104737	-1.906437
H	1.106947	-2.403493	0.371045
H	2.089326	0.864106	1.272373
H	0.585382	2.563546	0.402341
H	1.296764	1.93411	-1.107022
H	-0.087652	-0.452864	2.088974
