19

O	-1.557358	1.47091	-0.288311
C	-1.208546	0.416704	0.604091
C	-1.551964	-0.983475	-0.000564
C	-0.359632	-1.350146	-0.936401
C	0.803548	-0.694034	-0.235516
C	1.03162	-0.814459	1.236628
C	0.305725	0.396421	0.679882
C	1.301119	1.279206	-0.080998
O	1.783434	0.141822	-0.867195
H	-2.515234	1.477393	-0.376673
H	-1.707179	0.561668	1.574131
H	-1.651103	-1.721557	0.803039
H	-2.512033	-0.962972	-0.52633
H	-0.270505	-2.429485	-1.092416
H	-0.481373	-0.872085	-1.912944
H	0.435111	-1.536618	1.782851
H	2.039621	-0.680854	1.615492
H	0.813823	2.017057	-0.721449
H	2.109043	1.744294	0.495619
