19

C	-2.497549	0.123915	-0.460915
C	-1.040621	0.042429	-0.124646
O	-0.317373	-0.855154	-0.952164
C	0.918502	-1.047465	-0.276736
C	1.858447	0.112642	-0.594719
C	1.177317	1.445327	-0.172953
C	-0.200423	1.187873	0.421942
C	-0.41029	-0.082169	1.231555
O	0.616209	-1.043579	1.115594
H	-2.951013	-0.872201	-0.445284
H	-3.020104	0.755543	0.262939
H	-2.647967	0.553674	-1.456944
H	1.32213	-2.025881	-0.547623
H	2.799501	-0.041806	-0.058833
H	2.080683	0.099252	-1.665807
H	1.794861	1.973318	0.560879
H	1.081236	2.1142	-1.034253
H	-0.7524	2.062057	0.756037
H	-0.929909	-0.123609	2.180274
