19

C	-2.437658	0.07486	-0.25162
C	-0.982765	-0.133997	-0.634808
O	-0.571405	-1.506292	-0.353724
C	0.611485	-1.337213	0.43827
C	0.202515	-0.234145	1.451701
C	0.090769	0.657575	0.156733
C	0.065783	2.163542	0.140725
C	1.326242	-0.172718	-0.285129
O	2.384359	0.06203	-0.784102
H	-2.594021	-0.004266	0.827518
H	-2.78418	1.058691	-0.584378
H	-3.054788	-0.685801	-0.739108
H	-0.86468	0.051649	-1.711961
H	1.050885	-2.296587	0.697393
H	-0.715976	-0.427756	2.007497
H	1.010317	0.081055	2.115792
H	0.932376	2.573574	0.66776
H	0.09702	2.538437	-0.888022
H	-0.838822	2.557678	0.614882
