19

C	-0.088631	2.302202	-0.010654
C	-0.616408	0.90402	-0.04818
C	-1.842536	0.479442	-0.356265
C	-1.999856	-1.017854	-0.259978
C	-0.695634	-1.460727	0.444615
C	0.301101	-0.272632	0.296201
O	1.064807	-0.054037	1.456476
C	1.242621	-0.514148	-0.874523
O	2.443552	-0.450761	-0.764524
H	0.326256	2.520996	0.978814
H	0.728535	2.445007	-0.729654
H	-0.870525	3.031895	-0.234983
H	-2.658235	1.131761	-0.651877
H	-2.897475	-1.312224	0.295865
H	-2.098057	-1.472516	-1.255039
H	-0.851733	-1.580971	1.519418
H	-0.297289	-2.40577	0.063356
H	1.992861	-0.095466	1.174415
H	0.754848	-0.746148	-1.843229
