19

C	-2.344702	-1.077404	0.440115
C	-0.961881	-0.634141	0.039523
C	0.039302	-1.50365	-0.171988
C	1.426219	-1.164688	-0.651445
C	2.20238	-0.21689	0.285621
O	1.434632	0.857201	0.786354
C	0.574216	1.480492	-0.140832
C	-0.818481	0.834877	-0.194581
O	-1.793007	1.535672	-0.383866
H	-3.079477	-0.755697	-0.30382
H	-2.396467	-2.163334	0.548657
H	-2.645341	-0.616022	1.387231
H	-0.173016	-2.560135	-0.021268
H	2.018527	-2.076964	-0.771495
H	1.372004	-0.71462	-1.65029
H	2.549691	-0.759386	1.170285
H	3.088555	0.15779	-0.25176
H	0.42463	2.512221	0.187947
H	1.005573	1.52159	-1.153882
