19

C	-3.370658	0.293445	-0.133096
O	-2.140366	-0.354959	-0.355515
C	-1.157483	-0.010578	0.5973
C	0.102526	-0.779527	0.259128
C	0.985343	-0.342592	-0.965257
C	2.139373	-1.147205	-0.272474
C	1.468526	-0.386375	0.923336
C	1.449898	0.805494	-0.053807
O	1.687091	1.97259	-0.085978
H	-3.270659	1.388894	-0.185916
H	-4.059897	-0.03661	-0.913958
H	-3.796121	0.035515	0.849816
H	-0.97259	1.076869	0.589112
H	-1.497432	-0.272875	1.614786
H	-0.082731	-1.857457	0.271854
H	0.707375	-0.336456	-2.015908
H	1.988625	-2.228869	-0.258534
H	3.166405	-0.880902	-0.526787
H	1.738072	-0.42513	1.976704
