19

C	2.868118	-0.174943	0.209547
C	1.978783	1.070643	0.031305
C	0.882752	0.054054	-0.368295
O	1.757403	-1.060552	-0.03953
C	-0.383136	0.021847	0.448773
C	-1.595076	0.893665	0.00891
C	-2.540322	-0.03424	0.807999
C	-1.553106	-0.892572	-0.01678
O	-1.7816	0.014225	-1.170086
H	3.658484	-0.289851	-0.543725
H	3.304039	-0.331533	1.203274
H	1.769073	1.612857	0.956435
H	2.281262	1.780306	-0.739837
H	0.63511	0.05722	-1.434643
H	-0.169417	0.00509	1.522576
H	-1.65355	1.970406	-0.154819
H	-2.455581	-0.048801	1.897438
H	-3.571125	-0.051344	0.453623
H	-1.5528	-1.964451	-0.212149
