19

O	-3.324673	-1.302674	-0.396461
C	-2.814066	-0.508845	0.350158
C	-2.114334	0.762865	-0.082965
C	-0.691452	0.822903	0.446836
C	0.359655	1.630355	-0.274559
C	0.42389	0.120763	-0.288722
C	1.517281	-0.606618	0.474215
C	2.803261	-0.676774	-0.324651
O	3.87976	-0.31355	0.07176
H	-2.817976	-0.676313	1.453434
H	-2.138166	0.815985	-1.175451
H	-2.687969	1.614967	0.310537
H	-0.616801	0.814612	1.531908
H	0.073328	2.140549	-1.187959
H	1.090146	2.164281	0.324231
H	0.137462	-0.3541	-1.224316
H	1.733365	-0.119788	1.429973
H	1.197709	-1.63842	0.683273
H	2.682796	-1.099885	-1.349893
