19

C	2.260179	-1.582463	-0.356813
O	0.957742	-1.036924	-0.40791
C	0.741104	0.013441	0.509763
C	1.457834	1.24258	0.136001
C	2.035157	2.249499	-0.1761
C	-0.756291	0.285993	0.60829
O	-1.581711	-0.828433	0.916302
C	-1.721739	-0.211242	-0.377208
C	-3.025221	0.489828	-0.65363
H	2.486179	-1.987454	0.641222
H	2.290944	-2.395176	-1.085423
H	3.023841	-0.836496	-0.615597
H	1.084729	-0.297543	1.512792
H	2.548731	3.138103	-0.4501
H	-0.987025	1.198316	1.15988
H	-1.320982	-0.821461	-1.183769
H	-3.813955	-0.238039	-0.870745
H	-3.338735	1.088214	0.2061
H	-2.928103	1.148578	-1.523311
