19

C	1.856059	1.467168	-0.42838
C	0.658691	0.720938	0.10789
C	0.799845	-0.095769	1.385541
C	0.579012	-0.794391	0.064703
O	1.630299	-1.498456	-0.524265
C	-0.840517	-1.217304	-0.261082
C	-1.676673	0.062214	-0.121929
O	-2.872768	0.108485	-0.005074
C	-0.73325	1.273051	-0.152536
H	2.001412	2.416386	0.099342
H	2.765234	0.870963	-0.320641
H	1.731739	1.693913	-1.49348
H	1.80053	-0.161953	1.799345
H	0.004523	-0.08185	2.126714
H	1.782764	-2.298721	-0.010524
H	-0.891017	-1.556886	-1.304005
H	-1.251937	-2.013948	0.366633
H	-0.793686	1.722715	-1.153448
H	-1.068817	2.033702	0.559528
