19

C	3.253048	0.060672	-0.151515
C	1.966794	-0.465869	0.491958
C	0.683666	-0.067095	-0.254374
C	0.343076	1.409455	-0.205661
C	-0.956681	1.659375	0.014279
C	-1.674734	0.377318	0.130705
O	-2.86184	0.142352	0.062938
C	-0.60825	-0.71506	0.285231
O	-0.97907	-1.906322	-0.356306
H	4.133027	-0.275415	0.404745
H	3.353999	-0.297618	-1.181787
H	3.282407	1.155154	-0.176979
H	2.003479	-1.5607	0.532631
H	1.900121	-0.120614	1.531949
H	0.784842	-0.370522	-1.306268
H	1.097832	2.174283	-0.357369
H	-1.442315	2.626334	0.040634
H	-0.479995	-0.875029	1.372398
H	-1.947644	-1.89689	-0.376753
