19

C	-2.407829	-0.100933	-0.613077
C	-1.566582	0.743455	0.322728
C	-0.293275	1.415052	-0.182165
C	0.913753	0.766145	0.505152
O	2.113622	0.732639	-0.305093
C	2.090009	-0.711633	-0.370131
C	0.834182	-0.779192	0.508096
O	-0.296668	-1.295057	-0.169754
C	-1.48298	-0.765727	0.358035
H	-3.473818	-0.169686	-0.42611
H	-2.123124	-0.129425	-1.659356
H	-2.081017	1.234706	1.142315
H	-0.179388	1.269808	-1.259843
H	-0.315439	2.493331	-0.003876
H	1.115417	1.221599	1.482488
H	1.9354	-1.085285	-1.388778
H	2.998128	-1.155815	0.053207
H	0.957096	-1.262401	1.485424
H	-1.89256	-1.320481	1.201472
