19

C	2.462623	-0.975551	-0.241313
C	1.113812	-0.529613	0.341678
C	0.058916	-1.594254	0.173289
C	-1.2433	-1.341275	-0.007206
C	-1.782519	0.036075	-0.025162
O	-2.960107	0.263248	-0.214681
C	-0.773512	1.146179	0.243318
C	0.626567	0.804052	-0.260074
O	1.472069	1.89076	0.087449
H	2.799801	-1.91081	0.216115
H	2.391926	-1.138869	-1.322791
H	3.237858	-0.225964	-0.055666
H	1.254252	-0.353854	1.419887
H	0.40421	-2.62655	0.19894
H	-1.970635	-2.136601	-0.13639
H	-1.137435	2.075464	-0.199793
H	-0.722987	1.303151	1.330263
H	0.587978	0.685965	-1.356191
H	2.283809	1.822319	-0.423693
