19

C	2.52578	1.011104	0.609679
C	1.583985	0.213347	-0.277249
C	1.778019	-1.317719	-0.370481
O	0.415959	-1.561252	0.049115
C	0.194585	-0.158885	0.286493
C	-1.020408	0.389384	-0.475281
O	-1.022113	1.814657	-0.403691
C	-2.271343	-0.190805	0.010116
C	-3.291967	-0.633867	0.465196
H	2.157262	2.033511	0.741413
H	2.619657	0.55366	1.600888
H	3.527974	1.06982	0.171773
H	1.501436	0.684473	-1.260803
H	1.981133	-1.736741	-1.36252
H	2.501807	-1.729177	0.346003
H	0.072515	0.056167	1.359246
H	-0.890565	0.144136	-1.536159
H	-1.417032	2.060905	0.439993
H	-4.196861	-1.039347	0.84593
