19

C	1.82124	1.45365	-0.531711
C	0.767903	0.529873	0.06141
C	1.311182	-0.461731	1.147777
C	1.164431	-1.639578	0.142223
C	0.376069	-0.713021	-0.805684
O	-1.039319	-0.875588	-0.677878
C	-1.623079	0.146553	0.013237
O	-2.795346	0.166651	0.246395
C	-0.568374	1.189321	0.382793
H	2.126297	2.215674	0.193843
H	2.719862	0.89936	-0.824165
H	1.441015	1.968588	-1.420999
H	2.323921	-0.254202	1.500289
H	0.656257	-0.547397	2.01867
H	2.115939	-1.960115	-0.288927
H	0.615687	-2.519803	0.481061
H	0.626743	-0.723508	-1.869644
H	-0.75294	2.081559	-0.227026
H	-0.691694	1.480944	1.428494
