19

C	-1.740169	-1.4779	0.78054
O	-0.99207	-1.411394	-0.4216
C	-0.118899	-0.321818	-0.546324
C	1.187747	-0.363594	0.292888
C	2.361597	-1.069017	-0.393055
C	1.429596	1.096743	0.594703
C	0.391489	1.888922	0.294919
C	-0.712533	1.082649	-0.269444
O	-1.853778	1.423082	-0.478981
H	-2.421821	-0.62661	0.880649
H	-2.322204	-2.400622	0.727895
H	-1.095077	-1.527667	1.670734
H	0.169818	-0.31159	-1.606849
H	0.979627	-0.884056	1.238272
H	2.621231	-0.574726	-1.335515
H	3.252739	-1.069312	0.243474
H	2.103684	-2.10856	-0.615262
H	2.369381	1.436661	1.020658
H	0.316438	2.957062	0.455222
