19

C	2.387473	-1.267251	-0.13129
C	1.291403	-0.26462	0.070007
C	1.363017	1.143708	0.811674
C	0.016763	1.00109	0.068177
C	-1.458539	1.16011	-0.302844
C	-1.490266	-0.434727	-0.312626
O	-2.620451	-1.071636	0.211064
C	-0.180037	-0.423751	0.575555
O	0.773664	0.447989	-1.107397
H	3.265187	-0.791783	-0.580115
H	2.680319	-1.709199	0.825955
H	2.047036	-2.068452	-0.793978
H	1.331649	1.157214	1.904689
H	2.094812	1.837386	0.393303
H	-2.056212	1.544456	0.530737
H	-1.703386	1.700076	-1.22007
H	-1.339554	-0.834292	-1.312597
H	-2.76614	-0.749984	1.107213
H	-0.358294	-0.583605	1.6436
