19

C	-2.127994	-1.048446	-0.264073
C	-0.740909	-0.616738	0.149967
C	-0.594079	0.282437	1.367875
C	-0.273275	0.816771	-0.006266
O	-1.083716	1.761395	-0.634367
C	1.189429	0.772735	-0.416629
O	2.067377	0.197841	0.561566
C	1.618194	-0.628909	-0.523833
C	0.440285	-1.53939	-0.198888
H	-2.84369	-0.23453	-0.122069
H	-2.154848	-1.332196	-1.322357
H	-2.468662	-1.909708	0.322089
H	-1.524957	0.62733	1.808111
H	0.225242	0.125696	2.058491
H	-1.048463	2.576426	-0.122136
H	1.594378	1.58872	-1.009293
H	2.404809	-0.970508	-1.192893
H	0.194516	-2.130318	-1.089444
H	0.682481	-2.245566	0.602982
