19

C	-1.858604	1.296876	0.193938
C	-1.190528	0.181671	-0.605062
O	-1.372932	-1.120857	-0.003734
C	-0.280663	-1.410339	0.89299
C	0.905284	-0.673649	0.323474
C	1.186745	-0.784091	-1.164482
C	0.316862	0.315823	-0.661186
O	1.061544	1.430396	-0.147539
C	1.607396	0.565762	0.89192
H	-1.728599	2.25995	-0.308246
H	-2.927082	1.088457	0.289549
H	-1.428908	1.383671	1.195811
H	-1.655986	0.101018	-1.593544
H	-0.491573	-1.056988	1.913961
H	-0.192711	-2.500681	0.919364
H	2.176205	-0.537252	-1.534783
H	0.682923	-1.598828	-1.673025
H	2.703031	0.572278	0.891369
H	1.23485	0.859733	1.880178
