19

C	-0.903081	2.018657	0.432728
C	-0.900396	0.802772	-0.468937
O	-2.179844	0.098173	-0.52042
C	-1.524897	-1.141384	-0.260858
C	-0.89976	-1.138313	1.09757
C	-0.172207	-0.491953	-0.072897
C	1.2145	-0.867871	-0.526078
C	2.271941	-0.155597	0.298443
O	3.122801	0.566337	-0.152523
H	0.077672	2.505888	0.407073
H	-1.649352	2.741252	0.087984
H	-1.136686	1.754533	1.467394
H	-0.620191	1.088645	-1.492088
H	-1.845613	-2.017291	-0.813307
H	-1.346092	-0.547937	1.892111
H	-0.471346	-2.084372	1.416159
H	1.361487	-1.948965	-0.394795
H	1.376611	-0.626631	-1.58154
H	2.193251	-0.339084	1.394727
