19

C	2.94039	0.291495	0.13789
C	1.485898	0.074175	-0.290395
C	0.982273	-1.329494	0.078906
C	-0.456583	-1.578302	-0.408269
C	-1.425538	-0.50712	0.060932
O	-2.534641	-0.72933	0.476286
C	-0.899216	0.952309	-0.038299
O	-1.635174	1.842633	-0.382143
C	0.561546	1.146033	0.326174
H	3.602441	-0.444428	-0.329434
H	3.292704	1.288302	-0.145217
H	3.047291	0.196149	1.224732
H	1.433036	0.17421	-1.384466
H	1.644884	-2.089683	-0.348448
H	1.029348	-1.454771	1.169321
H	-0.468971	-1.551767	-1.508756
H	-0.84211	-2.554965	-0.103902
H	0.85695	2.161787	0.047963
H	0.630326	1.074172	1.423435
