19

C	4.3001	-0.579984	0.075856
C	2.902762	-0.188782	0.020711
C	1.746762	0.15605	-0.027178
C	0.354925	0.540271	-0.080063
O	0.021707	1.698758	-0.267466
C	-0.651349	-0.581438	0.121041
C	-2.083034	-0.196027	-0.288307
C	-3.056519	-1.350141	-0.08548
O	-2.555082	0.897303	0.477938
H	4.785369	-0.149503	0.958609
H	4.412413	-1.66788	0.123026
H	4.838886	-0.218023	-0.806399
H	-0.303569	-1.467551	-0.423417
H	-0.632478	-0.848629	1.187542
H	-2.065007	0.069639	-1.358943
H	-2.769906	-2.220097	-0.684294
H	-3.084987	-1.643764	0.968897
H	-4.063146	-1.040393	-0.37797
H	-1.932465	1.618015	0.309698
