19

O	-2.89791	-0.814073	0.184623
C	-1.826627	-0.295037	0.014841
C	-1.501278	1.191788	0.212079
C	-0.105885	1.369255	-0.403634
C	0.582367	0.005095	-0.195357
C	1.396188	-0.142493	1.119323
O	2.635291	-0.245304	0.394521
C	1.952957	-0.20264	-0.873743
C	-0.542388	-1.004235	-0.437409
H	-2.283933	1.82599	-0.210148
H	-1.487356	1.380739	1.29386
H	-0.192367	1.567396	-1.479532
H	0.465594	2.193146	0.032046
H	1.385261	0.723016	1.794925
H	1.185153	-1.049877	1.701508
H	2.302656	0.626912	-1.502339
H	2.061711	-1.142394	-1.431891
H	-0.648378	-1.2126	-1.511692
H	-0.419395	-1.967703	0.063507
