19

C	1.999736	-0.944645	-0.37651
C	0.530679	-0.664157	-0.280691
C	-0.645897	-1.581656	-0.610349
C	-1.54378	-0.535862	0.106432
C	-1.482471	0.717873	-0.816983
C	-0.015866	0.805756	-0.4108
O	0.839283	1.881388	-0.542755
C	-0.229147	0.000761	0.84293
O	0.136122	0.168566	2.151396
H	2.582101	-0.09655	-0.00423
H	2.275974	-1.824709	0.2145
H	2.305315	-1.135021	-1.413094
H	-0.872355	-1.790028	-1.663457
H	-0.583785	-2.524141	-0.057165
H	-2.478224	-0.823101	0.582725
H	-1.73621	0.566281	-1.873085
H	-2.0568	1.55788	-0.41458
H	1.249222	1.847823	-1.414641
H	-0.167997	1.033507	2.449725
