19

C	-2.367102	-1.329301	0.343264
C	-1.198132	-0.62102	-0.347543
C	0.103845	-1.39431	-0.311057
C	1.18781	-0.652178	-0.026703
C	2.628112	-1.044873	0.027876
C	0.737271	0.745838	0.152247
O	1.401834	1.76094	0.149925
C	-0.789443	0.732998	0.269858
O	-1.374798	1.856945	-0.334035
H	-3.270261	-0.71389	0.298226
H	-2.587619	-2.287967	-0.137931
H	-2.141812	-1.526402	1.397008
H	-1.470601	-0.42854	-1.394143
H	0.130084	-2.460132	-0.522774
H	3.219501	-0.403817	-0.6345
H	3.033989	-0.90614	1.036378
H	2.776378	-2.087444	-0.263916
H	-1.022836	0.699825	1.350656
H	-0.697287	2.548502	-0.303777
