19

C	-2.433101	-0.730305	-0.062167
C	-0.974361	-0.39573	0.096394
C	0.132138	-1.391607	0.492334
C	1.093535	-0.28273	-0.028673
O	2.355286	-0.545684	-0.548795
C	0.895673	0.823891	1.034396
C	-0.57333	1.047089	0.638542
O	-0.426526	1.535141	-0.730573
C	-0.067453	0.179202	-1.019534
H	-2.904124	-0.927228	0.907912
H	-2.967288	0.101391	-0.533693
H	-2.571768	-1.62044	-0.684909
H	0.22935	-1.713894	1.534102
H	0.117042	-2.262558	-0.170191
H	2.95761	-0.732647	0.179217
H	1.049378	0.465263	2.056613
H	1.488446	1.722415	0.850903
H	-1.229679	1.659007	1.257615
H	-0.037647	-0.105822	-2.070373
