19

C	-0.225325	2.207193	-0.005787
C	-0.009436	0.759514	0.403354
C	0.923796	-0.106648	-0.499654
O	-0.114028	-1.08388	-0.706119
C	-1.056802	-0.289244	0.022241
C	-2.154857	-0.910484	0.812808
C	-2.461262	-0.116683	-0.452978
C	2.133112	-0.684643	0.199322
O	3.223787	-0.175592	0.181582
H	0.689672	2.790048	0.139358
H	-0.515109	2.280794	-1.058417
H	-1.013658	2.67098	0.596686
H	0.269385	0.697838	1.46058
H	1.229666	0.388636	-1.428904
H	-2.249302	-1.989857	0.75988
H	-2.413489	-0.477622	1.774182
H	-2.753563	-0.677172	-1.334461
H	-2.932249	0.85616	-0.355312
H	1.915214	-1.618059	0.76686
