19

C	2.204197	-0.582773	0.268932
O	2.118478	0.811429	-0.122892
C	0.717335	0.61576	-0.457327
C	-0.270642	1.675202	-0.097618
C	-1.520248	1.339719	0.225501
C	-2.095297	-0.068429	0.271753
O	-1.475291	-1.036579	-0.567255
C	-0.315711	-1.685566	-0.048762
C	0.671614	-0.63427	0.425825
H	2.589401	-1.207371	-0.55112
H	2.822313	-0.723331	1.160025
H	0.63976	0.359691	-1.526052
H	0.046539	2.713824	-0.127699
H	-2.237418	2.118864	0.476332
H	-2.131541	-0.426122	1.315953
H	-3.136081	-0.020965	-0.069177
H	-0.591061	-2.384484	0.756095
H	0.080247	-2.269369	-0.886298
H	0.424853	-0.317401	1.44329
