19

C	0.645385	2.526071	-0.168616
C	0.370725	1.046185	-0.380173
C	-0.933833	0.458723	0.200602
C	-1.851374	-0.316832	-0.728112
O	-2.754944	-1.110447	0.014314
O	-0.197975	-0.465557	1.049365
C	1.079114	0.050314	0.588021
C	1.941693	-0.96072	0.00287
C	2.660997	-1.784506	-0.496497
H	-0.029618	3.138785	-0.77527
H	0.504219	2.810426	0.879714
H	1.671626	2.780766	-0.453049
H	0.521328	0.769182	-1.426764
H	-1.518459	1.155634	0.815419
H	-2.448885	0.373275	-1.3352
H	-1.241118	-0.930084	-1.410884
H	-2.211722	-1.644029	0.607533
H	1.603015	0.55504	1.411176
H	3.296719	-2.51638	-0.93067
