19

C	2.268398	-0.856817	0.29371
C	0.990753	-0.474416	-0.443898
O	-0.003796	-1.478914	-0.212191
C	-1.316838	-1.00262	0.020414
C	-1.344078	0.0061	1.197148
C	-0.958637	1.086027	0.13124
C	-1.684568	0.179376	-0.913566
C	0.527523	0.956861	-0.098007
O	1.311141	1.874395	-0.049689
H	2.618086	-1.835187	-0.044784
H	3.039865	-0.108453	0.101423
H	2.088464	-0.908923	1.371446
H	1.203595	-0.446744	-1.525603
H	-1.957106	-1.885242	0.052722
H	-2.356282	0.174327	1.5727
H	-0.663379	-0.175175	2.032246
H	-1.25123	2.126904	0.267721
H	-2.760036	0.37018	-0.913096
H	-1.316057	0.157411	-1.941973
