19

C	-2.319294	-0.155154	-0.696697
C	-1.065085	0.266841	0.02383
C	-0.752558	-0.286305	1.389482
C	0.114077	-0.696297	0.21516
O	0.1357	-2.015966	-0.190736
C	1.347987	0.091034	-0.033428
O	2.382586	-0.417989	-0.407013
C	1.026384	1.57622	0.092125
C	-0.482855	1.661509	-0.242636
H	-3.184648	0.424897	-0.355688
H	-2.220315	-0.005066	-1.777406
H	-2.529863	-1.214376	-0.525409
H	-0.357943	0.352436	2.174551
H	-1.392239	-1.0898	1.740062
H	1.032712	-2.15517	-0.532833
H	1.243649	1.907036	1.114726
H	1.661336	2.160834	-0.575521
H	-0.999384	2.435995	0.335028
H	-0.61152	1.907772	-1.302524
