19

C	-1.649701	1.308562	-0.630024
C	-1.290118	-0.053796	-0.080159
O	-2.42085	-0.904888	-0.034617
C	-0.423504	-0.410392	1.095381
C	0.944907	0.319629	1.189753
O	1.103974	1.257365	0.110239
C	1.336747	-0.140772	-0.142741
C	2.632672	-0.550066	-0.757794
C	-0.031776	-0.877506	-0.320036
H	-2.456898	1.736401	-0.026282
H	-0.801897	1.986276	-0.641223
H	-2.023813	1.199822	-1.657256
H	-2.77946	-0.948396	-0.928158
H	-0.820135	-1.020769	1.896132
H	1.515256	0.503901	2.093253
H	2.624672	-0.365948	-1.838447
H	3.456867	0.017624	-0.317976
H	2.815158	-1.618175	-0.600839
H	-0.110111	-1.884507	-0.710458
