19

O	2.709027	-0.639862	-0.071523
C	1.587536	-0.785542	0.339377
C	0.340905	-0.630984	-0.513017
C	-0.760137	-1.688002	-0.202888
C	-1.949106	-0.904105	0.402242
C	-1.830764	0.493978	-0.226258
C	-0.331823	0.723826	-0.222281
C	0.336603	2.007477	-0.426014
O	0.197881	1.464823	0.894562
H	1.388997	-1.051492	1.401273
H	0.658084	-0.67025	-1.558574
H	-1.05825	-2.185751	-1.130021
H	-0.398529	-2.47034	0.472513
H	-2.910635	-1.387043	0.211736
H	-1.832084	-0.821491	1.488423
H	-2.20053	0.481879	-1.259543
H	-2.359452	1.278645	0.319635
H	1.354766	2.027191	-0.81268
H	-0.256912	2.899082	-0.624041
