19

O	-2.682776	-0.901836	0.249394
C	-1.711514	-0.436116	-0.680116
C	-0.567002	0.265179	-0.011058
C	-0.625102	1.729677	0.356764
C	0.455624	1.265906	-0.580442
C	1.562905	0.609943	0.228229
O	2.232932	-0.446063	-0.482734
C	1.358886	-1.449356	0.079296
C	0.523797	-0.398291	0.832754
H	-2.966898	-0.142651	0.769602
H	-1.366479	-1.331431	-1.208792
H	-2.159889	0.230955	-1.434507
H	-1.424216	2.2968	-0.111721
H	-0.379284	2.060674	1.363581
H	0.554968	1.639778	-1.592561
H	2.260056	1.238604	0.790083
H	0.84318	-2.036189	-0.690552
H	1.912451	-2.133832	0.734001
H	0.339292	-0.561177	1.89502
