19

C	-2.861829	-0.073223	-0.000235
C	-1.606063	0.802834	0.000332
C	-0.304436	0.034831	0.000131
C	0.131358	-1.037179	1.072007
C	1.204327	-1.316986	-5e-05
C	0.131084	-1.037203	-1.071843
O	1.978679	-0.077337	-0.00016
C	0.980172	0.86529	-5.2e-05
O	1.159438	2.046038	-0.00012
H	-2.903913	-0.71667	-0.885421
H	-2.904004	-0.717705	0.884196
H	-3.7633	0.546096	8.5e-05
H	-1.611773	1.467205	-0.872342
H	-1.611987	1.466347	0.873661
H	0.47609	-0.685714	2.047183
H	-0.59624	-1.843994	1.17845
H	1.883487	-2.165581	-0.000128
H	0.475573	-0.685768	-2.047114
H	-0.596546	-1.844016	-1.178078
