19

C	2.350697	0.406849	0.36502
C	0.89957	0.152887	0.028587
O	0.805776	-0.931798	-0.900811
C	-0.494443	-1.485682	-0.705581
C	-1.005939	-0.812108	0.601458
C	-1.936593	0.37726	0.328178
C	-1.159806	1.45891	-0.384804
C	0.159756	1.362002	-0.533294
O	0.207509	-0.322963	1.17276
H	2.431251	1.214239	1.097093
H	2.792801	-0.50173	0.778112
H	2.896823	0.692579	-0.537563
H	-1.147243	-1.267428	-1.559663
H	-0.395677	-2.570834	-0.60275
H	-1.448264	-1.524944	1.300412
H	-2.793225	0.054173	-0.277423
H	-2.352012	0.759863	1.270601
H	-1.70771	2.314235	-0.770992
H	0.737529	2.107223	-1.070803
