19

C	2.581282	0.518268	0.140563
O	1.725433	-0.251323	-0.698045
C	0.466124	-0.405118	-0.208837
C	-0.53984	-1.501224	-0.462929
C	-1.622513	-0.511646	-0.878659
C	-0.837398	0.534483	-0.036886
C	-1.008	2.014524	-0.178925
O	-0.999056	0.038786	1.326645
C	-0.156399	-1.052736	0.98259
H	2.653415	0.07577	1.141998
H	3.56597	0.519309	-0.331071
H	2.226911	1.552521	0.235249
H	-0.351237	-2.508006	-0.8124
H	-1.574949	-0.290495	-1.948196
H	-2.655525	-0.690825	-0.564397
H	-2.037037	2.300474	0.067457
H	-0.335426	2.554918	0.493064
H	-0.803925	2.326856	-1.207336
H	0.201249	-1.719529	1.755332
