19

C	0.141218	2.183651	0.482518
C	-0.012494	0.775967	-0.070339
C	1.110431	0.324392	-1.023668
O	1.92558	-0.565615	-0.263238
C	1.067049	-1.337494	0.577056
C	-0.055336	-0.379947	0.998792
C	-1.506609	-0.671123	0.559905
O	-1.478056	-0.982099	-0.838972
C	-1.46899	0.395115	-0.450426
H	0.051223	2.932948	-0.312602
H	-0.624303	2.404926	1.234842
H	1.122326	2.306505	0.952647
H	0.693642	-0.18532	-1.902822
H	1.753605	1.144204	-1.356481
H	0.658427	-2.198149	0.029808
H	1.673537	-1.701041	1.410626
H	0.024002	-0.022811	2.027451
H	-2.330387	-1.073286	1.138004
H	-2.253875	1.030367	-0.846827
