19

O	-3.368866	-0.301469	-0.440276
C	-2.261608	-0.05234	-0.088224
C	-1.387313	1.184312	0.1237
C	-0.322501	0.156118	0.555151
O	-1.286638	-0.934696	0.300023
C	0.923249	0.015793	-0.278731
C	1.928705	-1.122113	0.058143
C	3.08805	-0.124078	-0.207387
C	2.073195	1.040839	-0.048488
H	-1.16991	1.741622	-0.789666
H	-1.75272	1.867012	0.892215
H	-0.086454	0.173237	1.624019
H	0.644416	-0.020908	-1.337853
H	1.869286	-1.4037	1.11443
H	1.879737	-2.030427	-0.544954
H	3.941874	-0.145471	0.4729
H	3.460444	-0.197732	-1.232848
H	2.062119	1.428661	0.975771
H	2.144565	1.885842	-0.73697
