19

C	-0.768556	2.446292	0.29504
C	-0.734812	0.978615	0.00245
C	-1.710554	0.247714	-0.55318
C	-1.359994	-1.199983	-0.549235
O	-1.170137	-1.733185	0.786115
C	-0.021576	-1.307278	0.054855
C	0.461108	0.104724	0.377469
C	1.735277	0.451115	-0.41166
O	2.814743	-0.419258	-0.111991
H	-0.671917	2.635019	1.371913
H	0.058199	2.979392	-0.190143
H	-1.705474	2.897275	-0.042447
H	-2.65919	0.635379	-0.905879
H	-1.762285	-1.905182	-1.26963
H	0.702218	-2.077406	-0.193529
H	0.683021	0.202125	1.450982
H	1.546742	0.331341	-1.483959
H	2.010489	1.50288	-0.243237
H	3.035988	-0.308475	0.818511
