19

C	-2.871268	-1.036078	0.496316
C	-1.851739	-0.330714	-0.405425
C	-0.389395	-0.818828	-0.214114
C	0.492908	0.443089	-0.321811
O	1.530166	0.488424	0.698894
C	2.655843	-0.181802	0.428859
O	2.882545	-0.831681	-0.555973
C	-0.470824	1.574548	-0.101285
C	-1.733186	1.158135	-0.163092
H	-3.882441	-0.649785	0.329667
H	-2.889514	-2.113049	0.299742
H	-2.624041	-0.889384	1.553299
H	-2.157637	-0.493536	-1.44956
H	-0.271095	-1.222221	0.797353
H	-0.093368	-1.59711	-0.91936
H	1.00328	0.508216	-1.288104
H	3.358646	-0.04176	1.265706
H	-0.134143	2.595437	0.034669
H	-2.605412	1.799138	-0.083468
