19

O	2.877362	-0.39129	0.017244
C	1.502315	-0.194265	-0.298459
C	0.610983	-1.222669	0.404574
C	-0.785112	-1.363548	-0.211044
C	-1.776489	-0.220133	-0.035548
O	-2.960893	-0.477069	0.085442
C	-1.368068	1.205087	-0.055143
C	-0.164751	1.792848	0.003691
C	1.227526	1.24956	0.110572
H	3.126595	-1.275989	-0.267738
H	1.348457	-0.289598	-1.387135
H	1.104244	-2.200111	0.328094
H	0.551641	-0.993473	1.475474
H	-0.681528	-1.516774	-1.295835
H	-1.289704	-2.253102	0.174144
H	-2.243159	1.850088	-0.072321
H	-0.183957	2.882313	0.024489
H	1.898654	1.896564	-0.466821
H	1.558582	1.365667	1.154304
