19

C	1.169384	2.207989	0.509909
O	0.542755	1.496312	-0.550824
C	0.059019	0.26469	-0.205066
C	-1.257177	-0.046724	-0.034878
C	-2.499443	0.76041	-0.111961
O	-1.365514	-1.382472	0.222511
C	-0.106144	-1.904018	0.213902
C	0.823994	-0.948765	-0.043847
C	2.305743	-1.109196	-0.172794
H	2.044584	1.672392	0.899113
H	1.492954	3.166185	0.097058
H	0.469476	2.38446	1.337043
H	-2.23666	1.789968	-0.365552
H	-3.181544	0.380319	-0.88125
H	-3.045839	0.76395	0.838435
H	-0.037336	-2.964062	0.397808
H	2.844453	-0.669257	0.675129
H	2.584267	-2.16534	-0.225083
H	2.675469	-0.615644	-1.077796
