19

C	-2.917434	-0.207127	-0.039323
C	-1.471984	0.057197	-0.40805
O	-0.692372	-1.171273	-0.462121
C	0.18474	-0.717733	0.597817
C	-0.544725	0.642237	0.684294
C	0.457399	1.720283	0.219553
C	1.513178	0.971069	-0.618164
C	1.576516	-0.419744	0.018023
O	2.53442	-1.143911	0.082374
H	-2.987634	-0.715978	0.927095
H	-3.474435	0.734683	0.020384
H	-3.393256	-0.839396	-0.795192
H	-1.416159	0.588929	-1.368501
H	0.214702	-1.407386	1.445321
H	-1.045088	0.892912	1.620346
H	-0.035106	2.526049	-0.332976
H	0.935684	2.174632	1.094217
H	1.180918	0.849632	-1.657003
H	2.497848	1.440313	-0.640615
