19

O	2.99315	-0.894595	-0.62196
C	2.115477	-0.456366	0.084053
C	1.165941	0.597672	-0.328337
C	0.627514	1.55477	0.748022
C	-0.288345	0.553572	0.172602
C	-1.44566	0.847615	-0.790044
C	-2.445401	-0.296767	-0.49416
C	-1.5799	-1.308671	0.26882
O	-0.665829	-0.505122	1.012785
H	1.962126	-0.835324	1.11788
H	1.337279	0.997998	-1.32239
H	0.972149	1.379973	1.762514
H	0.515976	2.597614	0.473225
H	-1.885447	1.830607	-0.60249
H	-1.105205	0.829925	-1.828323
H	-3.254973	0.05854	0.148895
H	-2.890971	-0.718108	-1.397912
H	-2.132062	-1.926231	0.9802
H	-1.035194	-1.968206	-0.423933
