19

C	2.3915	-1.044176	-0.517878
C	1.866872	0.223721	0.123244
O	2.332345	1.315998	-0.101157
C	0.665997	0.055892	1.064933
C	-0.609633	5.6e-05	0.27316
C	-1.313286	1.135633	-0.493578
C	-2.671729	0.382095	-0.266441
C	-1.88781	-0.708516	0.474893
O	-0.904495	-1.213556	-0.442317
H	2.846395	-1.680662	0.251099
H	1.565916	-1.616716	-0.952739
H	3.137824	-0.802317	-1.275349
H	0.759429	-0.865489	1.648921
H	0.644817	0.916593	1.739113
H	-1.272075	2.094837	0.026928
H	-0.984369	1.267867	-1.526291
H	-3.356013	0.93616	0.380094
H	-3.203738	0.040881	-1.157215
H	-2.212455	-1.378922	1.263231
