19

O	1.099957	1.377199	-0.930765
C	0.975313	1.002966	0.419132
C	1.311828	-0.542787	0.615822
O	2.138756	-1.137598	-0.351497
C	-0.180011	-0.757586	0.535558
C	-1.104515	-1.387538	-0.183874
C	-2.316631	-0.475848	-0.356373
C	-1.733006	0.953057	-0.09536
C	-0.511502	0.689233	0.807296
H	1.982704	1.103706	-1.210393
H	1.512597	1.693467	1.083062
H	1.763277	-0.735783	1.593468
H	1.617611	-1.178821	-1.162345
H	-1.015964	-2.35694	-0.661617
H	-2.7549	-0.566563	-1.356295
H	-3.11849	-0.721305	0.354309
H	-1.39516	1.385437	-1.041469
H	-2.464871	1.634979	0.345874
H	-0.685348	0.936033	1.860289
