19

C	-3.040516	-0.287611	0.07364
C	-1.8289	0.323187	-0.645651
C	-0.528183	-0.109043	-0.043725
C	0.143175	-1.496092	-0.092749
C	1.496319	-0.726637	-0.017321
O	2.638004	-1.04328	-0.175589
C	0.77507	0.616002	0.08672
C	1.247564	1.986657	-0.261073
O	-0.125305	0.444556	1.212892
H	-3.021924	-1.381079	0.024173
H	-3.049262	0.002217	1.128264
H	-3.9738	0.053469	-0.383037
H	-1.837623	0.036988	-1.70455
H	-1.886111	1.416535	-0.607196
H	-0.099968	-2.165997	0.734243
H	0.057181	-2.02727	-1.046042
H	0.410213	2.688814	-0.292344
H	1.965882	2.344041	0.483757
H	1.746642	1.983302	-1.234735
