19

C	2.204176	1.865481	-0.000167
O	1.065419	1.11336	-0.368387
C	0.916501	-0.101283	0.346062
C	-0.464622	-0.671194	-0.008232
C	-1.607902	0.28134	0.374408
C	-2.96116	-0.361141	0.168613
O	-3.859605	0.107714	-0.480009
C	1.98346	-1.064055	0.037862
C	2.849674	-1.856098	-0.221526
H	3.134925	1.319988	-0.204023
H	2.185148	2.779987	-0.596659
H	2.181066	2.133801	1.067395
H	0.94483	0.108402	1.430912
H	-0.484686	-0.874155	-1.083838
H	-0.578313	-1.632738	0.50488
H	-1.526998	0.526536	1.444649
H	-1.558712	1.212038	-0.192684
H	-3.081201	-1.345429	0.682648
H	3.61667	-2.555317	-0.448228
