19

C	-2.651619	0.031625	-0.030395
C	-1.144672	0.02241	0.065496
C	-0.443666	-1.02265	0.968847
C	0.523979	-1.111833	-0.230557
O	-0.507147	-0.593095	-1.10891
C	1.590694	-0.039172	-0.049731
O	2.758406	-0.277755	0.136164
C	0.998056	1.369475	-0.11457
C	-0.508196	1.410223	0.258409
H	-3.090819	0.448487	0.882462
H	-2.977594	0.64609	-0.875953
H	-3.03616	-0.981772	-0.172202
H	-0.050685	-0.698693	1.935544
H	-1.031968	-1.934873	1.084274
H	0.933598	-2.07283	-0.545267
H	1.608319	2.041195	0.492935
H	1.119238	1.68836	-1.156307
H	-0.645159	1.726605	1.298593
H	-1.026309	2.143768	-0.367102
