19

C	0.277005	1.752491	0.778106
C	0.681155	1.134809	-0.541034
O	1.773796	0.263407	-0.66865
C	1.714797	-0.881873	0.155438
O	0.508587	-1.581506	0.039184
C	-0.56911	-0.820128	0.565449
C	-1.896236	-0.978508	-0.216427
C	-1.992135	0.574526	-0.352097
C	-0.551015	0.656473	0.155043
H	0.83995	1.518303	1.676735
H	-0.104065	2.768525	0.742532
H	0.592112	1.74382	-1.435037
H	2.510497	-1.542314	-0.193433
H	1.897839	-0.603999	1.209482
H	-0.658947	-0.995137	1.647652
H	-1.711675	-1.475858	-1.170139
H	-2.712889	-1.482124	0.303288
H	-2.186943	0.966854	-1.353658
H	-2.711711	1.019984	0.341433
