19

O	1.028594	1.928999	-0.217226
C	0.65847	0.591792	-0.112457
C	1.751314	-0.479198	0.006692
C	0.571982	-1.364663	0.498855
C	-0.266766	-1.488867	-0.790233
C	-0.450263	0.033169	-1.070583
C	-1.719548	0.465509	-0.33024
O	-1.436164	0.136537	1.041122
C	-0.033365	-0.049643	1.119084
H	0.235496	2.47554	-0.203232
H	2.280507	-0.792189	-0.896395
H	2.464552	-0.229035	0.795557
H	0.741744	-2.260942	1.092462
H	0.282716	-2.00682	-1.581027
H	-1.222403	-1.999303	-0.642042
H	-0.387723	0.350484	-2.111907
H	-1.926987	1.54514	-0.428026
H	-2.614732	-0.077554	-0.650746
H	0.336442	0.221801	2.107481
