19

C	2.413848	0.000771	-0.080003
C	0.900463	0.055973	-0.004072
C	0.331152	-0.685115	1.225945
O	-1.095551	-0.659716	1.188573
C	-1.577966	0.046877	0.030797
C	-1.029309	-0.688727	-1.203174
O	0.396505	-0.651529	-1.165132
C	-1.020126	1.448034	0.020224
C	0.312704	1.450918	0.006056
H	2.760079	-1.036008	-0.091979
H	2.761149	0.487751	-0.995442
H	2.861085	0.512024	0.777869
H	0.668537	-1.729759	1.201653
H	0.679793	-0.220959	2.158147
H	-2.666671	0.000616	0.076467
H	-1.360095	-1.735014	-1.181325
H	-1.385372	-0.222313	-2.131601
H	-1.653432	2.327463	0.015751
H	0.942697	2.333776	0.008296
