19

C	1.04139	1.797105	0.886098
C	0.727221	0.84997	-0.266956
O	1.915469	0.668766	-1.015222
C	0.192415	-0.504076	0.208819
C	-1.195292	-0.533641	0.843618
C	-2.238061	0.077263	0.02469
C	-3.099516	0.580833	-0.644753
C	1.143288	-1.571065	0.54086
O	0.448693	-1.568689	-0.720174
H	1.476466	2.718132	0.490027
H	0.137165	2.059543	1.442419
H	1.763454	1.345285	1.573147
H	-0.05456	1.301217	-0.898215
H	1.745692	-0.081217	-1.601211
H	-1.452442	-1.57996	1.043037
H	-1.152845	-0.030339	1.818131
H	-3.862378	1.020614	-1.238256
H	2.208601	-1.36676	0.47538
H	0.848876	-2.365463	1.224449
