19

O	2.756331	-0.192201	-0.09802
C	1.628507	-0.972572	0.237154
C	0.379211	-0.478574	-0.504048
C	-0.986037	-1.14524	-0.219018
C	-1.421171	-0.499627	1.131495
C	-1.487576	0.809523	0.265594
C	-1.961167	-0.13445	-0.89103
C	-0.014694	0.946332	-0.066014
O	0.716037	1.901396	0.054623
H	2.49711	0.733431	0.015416
H	1.854886	-2.00393	-0.056291
H	1.448841	-0.978688	1.324973
H	0.609915	-0.479711	-1.576568
H	-1.065843	-2.217864	-0.3929
H	-2.418171	-0.81608	1.445081
H	-0.735525	-0.525502	1.981571
H	-2.019522	1.706022	0.575822
H	-3.009849	-0.415013	-0.772563
H	-1.76323	0.171422	-1.922165
