19

C	-2.376199	1.371259	-0.135337
C	-1.146348	0.74312	0.509158
C	0.119252	0.76619	-0.369326
C	1.234027	0.006419	0.3277
C	2.56071	0.052102	-0.327591
O	3.617269	0.035614	0.253116
C	0.149049	-0.744029	-0.431827
C	-1.102161	-0.838099	0.459822
O	-2.211323	-1.488699	-0.105597
H	-2.508846	1.049207	-1.174904
H	-3.284479	1.112142	0.415472
H	-2.282318	2.461671	-0.149715
H	-1.003092	1.164345	1.510573
H	0.340887	1.494738	-1.141976
H	1.26686	-0.038051	1.413756
H	2.514867	0.106434	-1.442242
H	0.392741	-1.414818	-1.248693
H	-0.944414	-1.32782	1.425204
H	-2.369747	-1.124936	-0.983228
