19

C	2.733787	-0.127236	0.351014
C	1.48608	0.232365	-0.447758
O	0.778183	-0.962213	-0.846516
C	-0.342037	-1.084245	0.001992
C	-0.358622	-0.070931	1.100847
C	0.435554	1.027651	0.338342
C	-0.823549	1.290362	-0.554093
C	-1.412826	-0.006567	-0.003499
O	-2.759554	-0.287173	0.130814
H	3.362845	-0.813917	-0.222053
H	3.320737	0.768648	0.581003
H	2.465339	-0.616512	1.293026
H	1.767622	0.755828	-1.369525
H	-0.656821	-2.106339	0.178113
H	-0.424717	-0.256385	2.164054
H	0.82653	1.875724	0.898337
H	-1.391983	2.153648	-0.199484
H	-0.663764	1.369084	-1.635628
H	-3.065131	-0.703084	-0.683295
