19

C	-2.536222	-0.488612	-0.337998
C	-1.052322	-0.417527	-0.140419
C	0.057085	-1.199994	-0.843309
C	1.055168	-0.251502	-0.121587
C	2.473114	-0.030301	-0.542414
O	0.896293	-0.633813	1.281044
C	-0.395183	-0.040669	1.228832
C	-0.146655	0.800295	0.036689
O	-0.295832	2.147138	-0.164673
H	-2.931796	-1.465545	-0.037396
H	-3.049758	0.274667	0.257029
H	-2.813691	-0.329346	-1.386893
H	0.174542	-2.265395	-0.618541
H	0.042902	-1.036658	-1.925682
H	2.522802	0.258183	-1.596867
H	2.936972	0.757305	0.057866
H	3.053691	-0.950225	-0.411128
H	-0.951944	0.120373	2.142599
H	-0.517323	2.299893	-1.090715
