19

O	-0.323387	2.084762	-0.413022
C	-0.880885	1.02011	0.337781
C	-1.582378	0.027226	-0.633819
C	-0.809084	-1.292134	-0.419228
C	-0.546703	-1.234518	1.107118
C	0.177408	0.128755	1.060889
C	1.255757	-0.144235	0.011371
O	2.369611	0.308132	-0.023416
C	0.617828	-1.128307	-0.984701
H	0.288016	2.571423	0.150453
H	-1.589282	1.406943	1.084226
H	-2.63896	-0.091399	-0.379232
H	-1.521174	0.40398	-1.657631
H	-1.329989	-2.180502	-0.778952
H	-1.46651	-1.209681	1.699095
H	0.086375	-2.046603	1.477756
H	0.567893	0.547081	1.988865
H	0.664798	-0.734918	-2.003881
H	1.17738	-2.070855	-0.965655
