19

C	2.532675	0.763516	-0.117332
C	1.477698	-0.146321	0.482892
O	1.115437	-1.247055	-0.429186
C	-0.088204	-0.545321	-0.845863
C	-1.524145	-0.753456	-0.310882
C	-0.964375	-0.740767	1.106585
C	0.013891	0.308793	0.442213
C	-0.936419	1.445999	0.144446
O	-1.990613	0.625256	-0.473119
H	2.196112	1.197995	-1.063025
H	2.769141	1.578521	0.575302
H	3.448752	0.197019	-0.308309
H	1.809866	-0.549706	1.446149
H	-0.000751	-0.134704	-1.854993
H	-2.295275	-1.415426	-0.703743
H	-1.629203	-0.38272	1.894714
H	-0.449291	-1.655702	1.392691
H	-1.347539	1.971925	1.012634
H	-0.567128	2.172529	-0.585334
