19

C	-2.944697	-0.13705	-0.22496
C	-1.483577	0.100665	-0.059664
C	-0.715221	1.161794	-0.339783
C	0.693357	0.681241	0.029766
O	1.817119	1.463827	-0.230033
C	0.421245	-0.039031	1.396703
C	-0.466882	-0.926793	0.463388
C	0.65607	-0.742134	-0.621749
O	1.795764	-1.532747	-0.402738
H	-3.420589	-0.387278	0.731958
H	-3.448306	0.743018	-0.635072
H	-3.137345	-0.983027	-0.897132
H	-0.971082	2.115741	-0.780962
H	1.835125	2.198411	0.392187
H	1.295672	-0.568364	1.77775
H	-0.087625	0.534598	2.174868
H	-0.814872	-1.915022	0.758663
H	0.324347	-0.778325	-1.667956
H	2.559843	-1.000537	-0.65433
