19

C	2.745005	-0.632987	-0.731167
C	1.612442	-0.121157	0.139553
O	1.813714	0.624925	1.080026
C	0.247113	-0.577824	-0.232316
C	-0.79467	-0.56294	0.889705
C	-2.097478	-1.107168	0.329857
O	-2.058168	-0.143771	-0.762287
C	-0.889513	0.458198	-0.198354
C	-0.748867	1.93932	-0.294576
H	2.567631	-0.371876	-1.780676
H	3.691072	-0.206162	-0.396712
H	2.795947	-1.72685	-0.681326
H	0.178357	-1.34117	-1.003031
H	-0.488685	-0.460205	1.92126
H	-2.114656	-2.143486	-0.026206
H	-2.964662	-0.918072	0.971793
H	-0.699128	2.249339	-1.344207
H	-1.612107	2.431485	0.163559
H	0.157674	2.265121	0.217422
