19

C	0.769835	-0.853239	1.107704
C	1.38586	0.477831	0.652174
O	1.958603	0.086135	-0.639019
C	0.572757	0.007717	-1.057854
C	0.239293	1.193719	-0.118828
C	-1.187445	1.253004	0.441218
C	-2.016795	0.123043	-0.185993
O	-1.407428	-1.156582	-0.082417
C	0.007829	-1.175146	-0.222236
H	1.550825	-1.581059	1.3363
H	0.083481	-0.785561	1.95451
H	2.080984	1.003477	1.306624
H	0.423994	0.012073	-2.13723
H	0.599056	2.133924	-0.538317
H	-1.186372	1.165189	1.533369
H	-1.664585	2.208763	0.202156
H	-2.995367	0.031153	0.294605
H	-2.193111	0.368015	-1.246277
H	0.26369	-2.153976	-0.631368
