19

O	-0.844378	2.006493	-0.485906
C	-0.091429	0.806343	-0.523918
C	1.282872	1.058882	0.150016
C	2.229357	-0.04344	0.045
C	3.010459	-0.9525	-0.052887
C	-0.883521	-0.314808	0.123185
O	-1.253262	-0.003515	1.450874
C	-0.67647	-1.75596	-0.244985
C	-1.937894	-1.027846	-0.666629
H	-1.279159	2.017254	0.376881
H	0.076235	0.567516	-1.579613
H	1.703851	1.961214	-0.306509
H	1.108454	1.308544	1.20511
H	3.704364	-1.751817	-0.136326
H	-0.51977	-0.241213	2.029123
H	0.069707	-1.994336	-0.993426
H	-0.765766	-2.482755	0.555107
H	-2.064517	-0.762557	-1.710214
H	-2.852517	-1.269696	-0.138565
