19

C	2.953596	-0.402485	-0.324445
O	1.669367	-0.79799	0.101587
C	0.887566	0.264086	0.579213
C	0.248262	1.275971	-0.380271
C	-1.041779	0.65429	-0.910471
C	-1.009415	1.297078	0.462708
C	-0.543936	-0.12354	0.990089
C	-1.16357	-0.743669	-0.298666
O	-2.493173	-1.187554	-0.148226
H	3.521608	0.077075	0.488526
H	3.48481	-1.303001	-0.641201
H	2.908025	0.297582	-1.17206
H	1.412066	0.79815	1.387259
H	0.709815	2.117955	-0.880352
H	-1.511132	1.023517	-1.814132
H	-1.537716	2.127299	0.906009
H	-0.755763	-0.570478	1.958984
H	-0.615566	-1.568368	-0.758237
H	-3.010034	-0.445766	0.189383
