19

O	-3.670116	-0.087065	0.113531
C	-2.533	-0.373103	-0.165113
C	-1.426601	0.643944	-0.358978
C	-0.140857	0.276527	0.400174
O	0.291438	-0.971426	-0.12122
C	1.611351	-1.317227	0.271823
C	2.629227	-0.339471	-0.317628
C	2.164583	1.074189	-0.087155
C	0.911581	1.348445	0.267298
H	-2.219375	-1.428764	-0.304648
H	-1.180102	0.681586	-1.428585
H	-1.79749	1.625431	-0.051807
H	-0.392251	0.156446	1.471849
H	1.690847	-1.321484	1.3708
H	1.77658	-2.337909	-0.083172
H	3.610466	-0.500907	0.146385
H	2.761845	-0.52838	-1.39157
H	2.889203	1.875618	-0.203728
H	0.592	2.366469	0.473474
