19

C	2.748164	-0.809953	-0.384599
C	2.023396	0.251222	0.452149
C	0.528574	0.254124	0.259666
C	-0.382285	1.427343	0.713837
C	-1.177274	0.907404	-0.503859
O	0.087142	0.524502	-1.128679
C	-1.645795	-0.468258	-0.000269
O	-2.728211	-0.979794	-0.045035
C	-0.315202	-1.002171	0.579489
H	3.831215	-0.721992	-0.262048
H	2.462057	-1.823992	-0.088908
H	2.513883	-0.688834	-1.44586
H	2.2304	0.10399	1.519967
H	2.400707	1.247034	0.192323
H	-0.838883	1.397917	1.706984
H	0.073418	2.397451	0.508993
H	-1.845783	1.505222	-1.119249
H	-0.403317	-1.246705	1.641988
H	0.027397	-1.886024	0.037045
