19

C	3.02119	-0.670338	-0.284451
C	1.60241	-0.288286	0.020119
C	0.615085	-1.164363	0.217014
C	-0.746615	-0.70497	0.577697
C	-1.73636	-0.244664	-0.470519
O	-3.073288	-0.550836	-0.216854
C	-1.02122	0.767325	0.391186
O	-0.033683	1.536799	-0.228784
C	1.301879	1.193558	0.121532
H	3.714558	-0.242935	0.451945
H	3.152404	-1.755692	-0.278702
H	3.336686	-0.290414	-1.264932
H	0.79494	-2.23376	0.135539
H	-1.210816	-1.172455	1.441986
H	-1.410442	-0.292732	-1.509499
H	-3.613027	0.169376	-0.561123
H	-1.603043	1.291244	1.148435
H	1.936009	1.757091	-0.571723
H	1.540284	1.553001	1.137706
