19

C	-2.2413	-0.153787	-0.118597
C	-0.752823	-0.348849	0.0712
C	-0.195344	-0.479954	1.532954
C	0.91314	0.510531	1.182145
C	1.476555	0.119248	-0.190361
O	1.319561	-1.211784	-0.633361
C	-0.089493	-1.414722	-0.808847
C	0.211073	0.871331	-0.134686
O	-0.040297	2.048192	-0.8043
H	-2.619597	0.662282	0.50718
H	-2.478039	0.086397	-1.160752
H	-2.797307	-1.057758	0.153579
H	-0.893691	-0.076513	2.271514
H	0.115774	-1.484159	1.839335
H	1.484434	1.126249	1.868012
H	2.39615	0.591784	-0.513199
H	-0.368083	-1.282016	-1.866791
H	-0.326593	-2.440446	-0.506497
H	-0.678006	2.560129	-0.293948
