19

C	1.907317	-1.44272	-0.331026
C	0.891777	-0.403078	0.059661
O	1.497016	0.812471	0.604575
C	0.826152	1.642612	-0.376989
C	0.040086	0.436805	-0.920799
C	-1.228252	-0.033297	-0.165232
O	-2.392852	-0.397564	-0.817081
C	-1.187332	0.275747	1.302821
C	-0.388038	-0.895145	0.777911
H	2.423989	-1.816836	0.560217
H	1.421041	-2.291324	-0.822961
H	2.656039	-1.023174	-1.008959
H	0.25205	2.454882	0.0847
H	1.543121	2.06995	-1.08902
H	0.025902	0.235645	-1.991078
H	-3.005429	0.345615	-0.785895
H	-0.677415	1.141747	1.710207
H	-2.091766	-0.016767	1.827304
H	-0.551105	-1.904543	1.13744
