19

O	-1.495877	-1.963512	-0.01769
C	-1.425971	-0.624577	-0.407102
C	-1.375534	0.394479	0.725063
C	-1.213751	1.777065	0.121161
O	-0.085628	1.335504	-0.688211
C	-0.124919	0.0388	-0.075522
C	1.152824	-0.639754	0.221403
C	2.347391	-0.375191	-0.667253
C	2.329154	0.145331	0.746833
H	-2.368548	-2.124899	0.356528
H	-1.925684	-0.371732	-1.345712
H	-1.656104	0.145098	1.740126
H	-2.032397	2.164817	-0.497723
H	-0.897396	2.544302	0.836829
H	1.020154	-1.653716	0.580937
H	2.992468	-1.212317	-0.908974
H	2.22356	0.348828	-1.464148
H	2.967533	-0.326395	1.485552
H	2.193298	1.213152	0.876287
