19

C	-2.54261	-0.133105	-0.744037
C	-1.210812	-0.136664	-0.050785
C	-0.974776	-0.782994	1.285847
C	-0.165042	-1.260446	0.104938
C	0.943339	-0.259933	-0.116898
C	2.317731	-0.213995	0.375349
O	2.021606	-0.45332	-1.014434
C	-0.090495	0.870547	-0.33371
O	-0.089422	2.003979	0.504747
H	-2.429706	-0.041236	-1.830182
H	-3.094979	-1.056358	-0.541074
H	-3.160683	0.704342	-0.400121
H	-0.494549	-0.234136	2.090676
H	-1.762262	-1.456144	1.610831
H	-0.187539	-2.276278	-0.269034
H	2.787331	0.745218	0.591625
H	2.728835	-1.064352	0.917659
H	-0.080637	1.151056	-1.397015
H	0.572706	2.62215	0.179904
