19

O	-2.884916	-0.666694	-0.554467
C	-1.531541	-0.330846	-0.429365
C	-1.190102	0.957014	0.260712
C	-0.915213	-0.411751	0.939795
C	0.598483	-0.111738	0.936601
C	1.458711	-0.554804	-0.294063
O	2.805492	-0.879063	-0.033083
C	1.196631	0.841518	-0.959138
C	0.322948	1.265006	0.260061
H	-3.349272	-0.373742	0.236997
H	-1.011063	-0.663242	-1.321456
H	-1.970291	1.685258	0.457401
H	-1.449918	-0.912979	1.7401
H	1.091284	-0.18792	1.907574
H	1.060342	-1.412296	-0.841711
H	3.201789	-0.14956	0.455643
H	2.123913	1.41755	-1.039524
H	0.714361	0.837463	-1.940086
H	0.584737	2.199133	0.757846
