19

C	0.478742	2.147831	-0.114579
C	0.711057	0.677908	-0.003975
O	1.788096	0.202655	0.823674
C	1.710366	-0.243206	-0.540316
C	0.663554	-1.394807	-0.644531
C	0.022515	-1.672813	0.689238
C	-0.392524	-0.445328	-0.089626
C	-1.785277	-0.184999	-0.572103
O	-2.562381	0.542705	0.373549
H	-0.065144	2.519674	0.759863
H	1.433684	2.674852	-0.186234
H	-0.120659	2.38258	-0.999489
H	2.580432	-0.088536	-1.167766
H	0.579571	-2.057658	-1.49582
H	-0.703793	-2.480724	0.679794
H	0.602837	-1.578298	1.597903
H	-1.778447	0.437112	-1.474617
H	-2.265021	-1.139779	-0.842373
H	-2.519785	0.060381	1.2063
