19

C	-3.391205	0.19039	6e-06
O	-2.086708	-0.340969	-5.5e-05
C	-1.08908	0.658916	4.3e-05
C	0.25549	0.000502	2.5e-05
C	0.863684	-0.97681	1.069367
C	2.004006	-0.866812	-1.9e-05
C	0.863542	-0.976986	-1.069237
C	1.662138	0.629352	-0.000164
O	2.183542	1.701644	-3.7e-05
H	-3.580281	0.809124	-0.891465
H	-4.087107	-0.651862	-8.8e-05
H	-3.580277	0.808926	0.891616
H	-1.18793	1.308901	-0.886382
H	-1.187978	1.308769	0.886559
H	1.061341	-0.577086	2.066021
H	0.372315	-1.950941	1.107179
H	2.970558	-1.363983	-3.5e-05
H	1.061066	-0.577429	-2.065984
H	0.372162	-1.95112	-1.106815
