19

O	0.759843	1.812322	0.830233
C	0.596734	1.037323	-0.353184
C	-0.844881	1.192379	-0.886156
C	-1.533045	-0.132159	-0.518152
C	-1.485571	-0.372879	1.029547
C	-0.203323	-1.171792	0.818855
C	-0.435779	-1.224075	-0.689834
C	0.742445	-0.467797	-0.132489
O	2.02628	-1.018732	-0.133144
H	1.55987	1.500289	1.267174
H	1.335531	1.359413	-1.105941
H	-1.327809	2.068641	-0.444953
H	-0.830338	1.321701	-1.973617
H	-2.498736	-0.28865	-0.998159
H	-1.43666	0.51396	1.667058
H	-2.302363	-1.021082	1.358038
H	0.202219	-1.948289	1.456745
H	-0.383658	-2.053028	-1.3836
H	2.373483	-0.967677	-1.030984
