19

C	0.917591	1.583385	-1.28215
C	0.572888	0.679412	-0.133154
C	0.671361	0.942751	1.403691
C	0.106795	-0.507543	1.320499
C	1.17417	-0.741699	0.194713
O	1.056809	-1.792137	-0.712089
C	-0.787338	0.034963	0.200284
C	-2.18689	0.392735	0.038206
O	-1.597162	-0.720081	-0.685796
H	1.97053	1.881409	-1.246409
H	0.74647	1.070067	-2.23425
H	0.309455	2.494657	-1.27423
H	1.682407	1.037944	1.806931
H	0.001096	1.702339	1.810543
H	-0.164818	-1.168548	2.142079
H	2.213028	-0.729458	0.536805
H	0.142519	-1.840341	-1.017126
H	-2.918501	0.107131	0.792117
H	-2.470816	1.238515	-0.585912
