19

O	-0.195625	2.11649	0.475699
C	-0.099581	1.022188	-0.426103
C	1.310081	0.478783	-0.671056
C	2.083949	-0.18147	0.447235
C	1.278093	-1.026671	-0.506367
C	-0.141142	-1.42669	-0.128608
C	-0.723188	-0.956644	1.196513
C	-0.98513	-0.187292	-0.071367
O	-2.276902	-0.19369	-0.601036
H	0.293323	1.881569	1.271309
H	-0.49125	1.409421	-1.372735
H	1.886779	0.949869	-1.45861
H	3.162522	-0.197195	0.332121
H	1.771465	-0.084436	1.481109
H	1.809719	-1.679595	-1.188511
H	-0.537747	-2.343725	-0.547897
H	-1.569756	-1.528132	1.562345
H	-0.084513	-0.565907	1.980576
H	-2.79882	0.442509	-0.098496
