19

C	1.320068	1.221689	-5.1e-05
O	1.828791	-0.114615	-1.8e-05
C	0.796082	-1.105882	5.6e-05
C	-0.068053	-0.922566	-1.265575
C	-0.9266	0.322709	-1.014211
O	-1.914792	-0.009685	4e-06
C	-0.926596	0.322825	1.014177
C	-0.06804	-0.922415	1.265676
C	-0.199001	1.242912	-6.8e-05
H	1.709664	1.747633	0.883725
H	1.709699	1.747591	-0.883836
H	1.322768	-2.062664	0.000116
H	0.591911	-0.800166	-2.13069
H	-0.724719	-1.77988	-1.445004
H	-1.37984	0.753336	-1.910938
H	-1.379827	0.75355	1.910862
H	0.591929	-0.799909	2.130773
H	-0.724694	-1.779714	1.445213
H	-0.596036	2.258995	-0.00013
