19

C	2.090043	0.03181	-0.570487
O	1.911077	-0.028403	0.869381
C	0.488316	-0.011514	0.995915
C	0.018278	1.085005	-0.006784
C	-1.503364	1.197242	-0.142633
C	-2.141185	-0.149332	0.21839
O	-1.357709	-1.243589	-0.242253
C	0.025448	-1.041208	-0.085297
C	0.634721	0.061384	-1.02138
H	2.657249	0.931481	-0.838289
H	2.64081	-0.851941	-0.914335
H	0.21388	-0.050612	2.049325
H	0.512759	2.056876	0.076067
H	-1.896936	1.97199	0.524916
H	-1.760602	1.494505	-1.166231
H	-2.25366	-0.21764	1.311328
H	-3.1338	-0.269545	-0.223754
H	0.505436	-2.02288	-0.074107
H	0.414384	0.09338	-2.088279
