19

C	-2.607752	0.182341	-0.409867
C	-1.239619	-0.292752	-0.05748
C	-0.488586	-1.261488	-0.578992
C	0.874733	-1.207436	0.096449
C	1.822298	-0.233903	-0.632797
C	1.101491	1.123895	-0.799987
O	0.340598	1.51355	0.349788
C	-0.34459	0.427561	0.95798
O	0.575498	-0.564594	1.348054
H	-3.046777	-0.406888	-1.219216
H	-3.28156	0.131644	0.454696
H	-2.580967	1.233225	-0.723477
H	-0.737462	-1.920293	-1.401623
H	1.334777	-2.17765	0.298237
H	2.72267	-0.12252	-0.021038
H	2.123192	-0.60648	-1.618714
H	1.820998	1.930062	-0.96536
H	0.44487	1.077137	-1.67889
H	-0.836358	0.840804	1.840809
