19

O	-2.550095	-1.456512	-0.118052
C	-2.097475	-0.177658	-0.530623
C	-1.175256	0.376111	0.554647
C	-0.648664	1.785094	0.153888
C	0.761223	1.524088	-0.300029
C	1.16854	0.282712	0.002067
C	0.096337	-0.50413	0.718785
C	2.502874	-0.237925	-0.302429
O	2.884203	-1.352112	-0.017197
H	-3.033833	-1.857926	-0.84538
H	-1.546365	-0.235205	-1.484226
H	-2.94259	0.51401	-0.679258
H	-1.749984	0.414161	1.483772
H	-1.259284	2.258755	-0.625894
H	-0.653684	2.484048	1.001557
H	1.374949	2.272302	-0.792402
H	-0.043924	-1.506867	0.3071
H	0.36718	-0.64376	1.772065
H	3.169193	0.479719	-0.833189
