19

O	2.445601	-3.5e-05	0.70132
C	1.454045	-1.8e-05	0.010481
C	0.76875	1.281898	-0.45325
C	-0.765903	1.126416	-0.392311
C	-1.269412	0.777431	1.027614
C	-1.26949	-0.777419	1.027579
C	-0.765946	-1.126388	-0.392332
C	0.768703	-1.281913	-0.453241
O	-1.140906	2.8e-05	-1.18643
H	1.131318	2.120295	0.14759
H	1.051351	1.461416	-1.498395
H	-1.255926	2.004743	-0.818302
H	-0.629475	1.200923	1.805596
H	-2.278045	1.167162	1.180407
H	-0.629654	-1.201018	1.805585
H	-2.278177	-1.167048	1.180279
H	-1.255981	-2.004693	-0.818354
H	1.131236	-2.120317	0.14761
H	1.051319	-1.461451	-1.49838
