19

O	-1.350339	1.521424	-0.619481
C	-1.067767	0.253445	-0.083481
C	-2.056176	-0.347007	0.889789
C	-1.966938	-0.855794	-0.534011
C	0.385942	-0.003986	0.099723
C	1.446967	0.937958	0.707
C	2.522227	0.222989	-0.18536
C	1.40391	-0.667738	-0.738566
O	0.809967	-1.339868	0.387439
H	-1.283107	2.164996	0.09411
H	-1.673895	-0.979793	1.682718
H	-2.914819	0.262023	1.150812
H	-1.523153	-1.830301	-0.695895
H	-2.758891	-0.573594	-1.217423
H	1.303926	1.982318	0.420691
H	1.569294	0.86254	1.79012
H	2.954609	0.888414	-0.935847
H	3.320441	-0.308845	0.337325
H	1.319585	-1.159407	-1.700842
