19

C	-2.273946	-0.944702	0.33514
C	-0.867297	-0.71036	-0.095884
C	0.112602	-1.568408	-0.393339
C	1.35459	-0.711563	-0.567643
C	1.71216	-0.174659	0.856202
O	0.616362	0.704623	1.114888
C	-0.173935	0.665353	-0.114219
C	-0.971861	1.929766	-0.257539
O	0.810019	0.502637	-1.113969
H	-2.435894	-0.564681	1.351883
H	-2.989682	-0.425109	-0.313384
H	-2.520758	-2.009716	0.329392
H	0.092463	-2.649722	-0.365744
H	2.17924	-1.088041	-1.169424
H	1.766436	-0.963488	1.613652
H	2.648818	0.393428	0.841755
H	-1.652918	2.0419	0.589586
H	-0.296882	2.78778	-0.280304
H	-1.555749	1.907011	-1.181064
