19

C	3.202478	-0.526342	-0.421951
C	1.709446	-0.161655	-0.368571
C	0.867841	-1.3471	0.168391
C	-0.557598	-1.043515	0.213487
C	-1.724599	-0.745201	0.237689
C	-3.12152	-0.310591	0.256719
O	-3.397065	0.73034	-0.668889
C	1.522052	1.047593	0.52989
O	1.199624	2.145353	0.16012
H	3.789548	0.287468	-0.856181
H	3.59692	-0.732503	0.579742
H	3.356447	-1.421374	-1.032393
H	1.352666	0.116158	-1.364566
H	1.054286	-2.223848	-0.463742
H	1.224631	-1.614838	1.172912
H	-3.780114	-1.140899	-0.021949
H	-3.397157	-0.019186	1.283141
H	-2.741607	1.422207	-0.528312
H	1.735306	0.842135	1.607576
