19

C	0.175813	2.131825	-0.267799
C	0.076881	0.675289	0.152352
C	-1.077699	0.328899	1.125706
C	-1.654608	-0.422549	-0.068715
O	-2.617455	-1.07083	-0.325764
O	-0.614204	-0.107523	-0.905189
C	1.421505	0.068337	0.475703
C	2.294432	-0.494997	-0.615576
C	1.665319	-1.416341	0.401545
H	0.596977	2.731557	0.545667
H	0.827613	2.233423	-1.139841
H	-0.809024	2.534366	-0.520773
H	-0.812122	-0.312416	1.967505
H	-1.690064	1.163824	1.471009
H	1.931328	0.600244	1.275178
H	1.880763	-0.520225	-1.617364
H	3.361777	-0.312035	-0.567355
H	0.857563	-2.050525	0.055315
H	2.298611	-1.864172	1.158973
