19

O	2.252729	-0.840079	-0.210143
C	0.921467	-0.544621	0.01908
C	0.105643	-1.014815	1.219541
C	-0.792677	0.263755	1.052555
C	-2.046762	-0.033527	0.21632
C	-1.473762	-0.574741	-1.125805
C	-0.021091	-0.098031	-1.114797
C	0.257915	0.817547	0.041548
O	0.715144	2.108017	-0.106891
H	2.303723	-1.643533	-0.739529
H	-0.403606	-1.983846	1.155866
H	0.70169	-0.981465	2.13576
H	-0.965563	0.835038	1.965423
H	-2.722084	-0.742406	0.705722
H	-2.607527	0.892292	0.046377
H	-1.547264	-1.666409	-1.184867
H	-2.014745	-0.175183	-1.98881
H	0.503569	0.12011	-2.039096
H	1.30443	2.308502	0.628774
