19

C	2.281688	-0.004345	-0.086265
C	1.460718	-1.147628	0.595704
C	0.187242	-0.513909	0.04968
O	-0.875789	-1.324045	-0.355426
C	-1.988597	-0.458585	-0.450708
O	-1.852958	0.51953	0.561323
C	-0.462208	0.70266	0.772832
C	0.270212	1.685591	-0.19161
C	1.012001	0.493287	-0.846979
H	2.693005	0.731594	0.609941
H	3.090686	-0.353769	-0.729881
H	1.64618	-2.116763	0.12535
H	1.53595	-1.263215	1.680714
H	-2.016462	0.014374	-1.448097
H	-2.905471	-1.028785	-0.279202
H	-0.296126	0.839263	1.844431
H	-0.434678	2.187873	-0.859415
H	0.897464	2.442534	0.288159
H	1.053095	0.44059	-1.935104
