19

O	-2.456684	0.556055	-0.327002
C	-1.143501	0.241559	0.063629
C	-1.093389	-0.821114	1.128706
C	-0.629322	-1.129443	-0.284648
O	0.710368	-1.401574	-0.58034
C	1.645224	-0.360012	-0.559479
C	2.114962	0.245127	0.740985
C	1.269242	1.056063	-0.225117
C	-0.184012	1.421023	0.046531
H	-2.436782	0.810331	-1.257028
H	-0.35378	-0.737532	1.915833
H	-2.046355	-1.237008	1.435375
H	-1.280969	-1.761073	-0.88017
H	2.385477	-0.528407	-1.33532
H	1.656004	-0.112511	1.655092
H	3.164045	0.50214	0.842343
H	1.808621	1.822755	-0.773231
H	-0.283752	2.014321	0.964111
H	-0.517204	2.071923	-0.771911
