19

O	-0.212631	1.945985	-0.322237
C	-0.107811	0.706249	0.3478
C	1.298319	0.498779	0.941583
C	1.964416	-0.461916	-0.127493
O	0.956089	-0.876767	-1.092795
C	-0.242502	-0.582397	-0.458123
C	-1.694974	-0.184663	-0.823754
C	-1.498731	0.100193	0.728827
C	-0.822112	-1.289194	0.814716
H	0.477768	1.986427	-0.994417
H	1.825733	1.451065	1.017808
H	1.310097	0.037225	1.929275
H	2.768303	0.02198	-0.689559
H	2.375564	-1.353507	0.358385
H	-1.825136	0.687782	-1.458944
H	-2.383916	-0.995499	-1.068747
H	-2.250695	0.509484	1.400609
H	-0.154332	-1.474223	1.656209
H	-1.470676	-2.146785	0.628291
