19

C	-2.390945	-1.207221	0.394472
C	-1.309023	-0.795146	-0.61283
C	-0.473798	0.413244	-0.181007
C	-1.269091	1.711884	-0.089331
C	0.946759	0.568944	-0.82462
O	1.392779	1.310552	0.384533
C	0.581101	0.204521	0.960434
C	1.412532	-0.671268	-0.015497
O	2.12949	-1.614902	-0.061261
H	-3.135727	-0.419904	0.541846
H	-2.919246	-2.098892	0.045124
H	-1.955749	-1.443439	1.371556
H	-0.650483	-1.653677	-0.793067
H	-1.775759	-0.564277	-1.578888
H	-1.747939	1.931637	-1.049753
H	-2.05912	1.637245	0.663688
H	-0.620319	2.54726	0.1766
H	1.24092	0.965512	-1.795117
H	0.460063	0.183584	2.0421
