19

C	-2.577142	-0.261101	0.829587
C	-1.614228	-0.055216	-0.342178
O	-0.621752	-1.097517	-0.26762
C	0.716183	-0.911091	-0.238884
O	1.427532	-1.876929	-0.154925
C	1.290511	0.502604	-0.316659
C	2.289764	0.717059	0.839567
C	0.252244	1.582365	-0.379358
C	-1.048838	1.327693	-0.387642
H	-3.425202	0.425576	0.747503
H	-2.955521	-1.28609	0.827712
H	-2.068181	-0.074453	1.779461
H	-2.162253	-0.248721	-1.276008
H	1.875328	0.515074	-1.24835
H	2.801403	1.677141	0.723283
H	1.773758	0.722011	1.804627
H	3.030297	-0.084052	0.8436
H	0.614863	2.606828	-0.415246
H	-1.781702	2.128374	-0.432824
