19

C	3.500009	0.388212	-0.06677
O	2.36746	-0.441439	0.037005
C	1.171893	0.223343	-0.305638
C	0.038446	-0.754668	-0.153859
O	-0.611116	-0.828106	1.114194
C	-1.37265	-0.333623	-0.005522
C	-2.4919	-1.241039	-0.476218
C	-1.702433	1.07463	0.035041
C	-2.026659	2.23229	0.041549
H	3.434332	1.255646	0.608513
H	4.369976	-0.211279	0.211259
H	3.638946	0.763567	-1.093553
H	0.997037	1.096332	0.339466
H	1.211872	0.580797	-1.350373
H	0.22074	-1.723036	-0.622795
H	-2.158663	-2.28136	-0.467239
H	-3.358306	-1.144483	0.1844
H	-2.805155	-0.972791	-1.489577
H	-2.301769	3.258092	0.058807
