19

C	1.936735	-1.48057	-0.256137
C	0.562353	-1.28391	0.348704
O	-0.506593	-1.244518	-0.631755
C	-1.068229	-0.034718	-0.06512
C	-2.520104	-0.173624	0.307679
C	-0.582676	1.212411	-0.854748
C	0.625057	1.287227	0.100947
O	1.558822	2.029822	0.197443
C	0.139257	0.09058	0.930559
H	2.69892	-1.489578	0.530035
H	1.976847	-2.439284	-0.782603
H	2.183416	-0.686335	-0.965588
H	0.357915	-2.080111	1.078054
H	-2.668442	-1.01727	0.987932
H	-2.890447	0.735869	0.791286
H	-3.123248	-0.352839	-0.589146
H	-0.364458	1.051529	-1.91312
H	-1.229344	2.090945	-0.747119
H	0.086655	0.200266	2.013461
