19

C	-3.248741	-0.563933	0.142432
C	-2.029958	0.292434	0.49709
C	-0.889734	0.165955	-0.517141
C	-0.03007	-1.145366	-0.497026
C	1.192365	-0.324086	-0.053794
C	2.258626	-0.628245	0.916089
O	2.528958	-0.507248	-0.477222
C	0.389437	0.965947	-0.174159
O	0.640109	2.128476	-0.043935
H	-4.037763	-0.454181	0.892709
H	-3.665167	-0.272573	-0.827861
H	-2.988481	-1.626294	0.085624
H	-2.318393	1.348161	0.559363
H	-1.659812	0.015998	1.493164
H	-1.252875	0.421536	-1.519488
H	-0.359593	-1.90407	0.216845
H	0.101787	-1.608913	-1.476619
H	2.654095	0.170706	1.541049
H	2.322124	-1.636431	1.323526
