19

C	-1.725682	-0.879787	1.283936
C	-0.875772	-0.292246	0.160972
O	-0.83379	-1.191367	-0.986563
C	0.602347	-1.292792	-0.933225
C	0.676057	-0.423231	0.337495
C	1.539014	0.829356	0.288125
O	2.92293	0.516357	0.369675
C	-1.359495	1.034274	-0.21968
C	-1.775221	2.122284	-0.518387
H	-1.36201	-1.878323	1.54082
H	-1.680868	-0.241807	2.171994
H	-2.768483	-0.955989	0.964444
H	0.935134	-2.332542	-0.840614
H	1.072918	-0.847722	-1.822449
H	0.929214	-0.993377	1.234488
H	1.308704	1.41562	-0.612394
H	1.322711	1.467096	1.151378
H	3.182143	0.097884	-0.457292
H	-2.140068	3.082084	-0.790684
