19

C	-2.172343	0.060379	-1.095446
C	-1.129487	-0.245326	-0.020106
C	-1.778509	-0.535514	1.338106
C	-0.00572	-1.269016	-0.423385
C	1.060494	-0.21039	-0.103164
C	2.335638	-0.323302	0.626626
O	2.295165	-0.02166	-0.764711
C	-0.023603	0.839406	0.090864
O	-0.035928	2.027769	0.231043
H	-1.704138	0.271249	-2.062014
H	-2.852793	-0.788126	-1.22593
H	-2.765882	0.93561	-0.813462
H	-1.030019	-0.75804	2.105766
H	-2.362038	0.326018	1.677173
H	-2.451025	-1.39722	1.264625
H	0.038596	-2.18488	0.169447
H	-0.023996	-1.527074	-1.485123
H	2.655221	0.491933	1.273671
H	2.70336	-1.315765	0.88422
