19

C	2.709378	0.149033	0.009601
C	1.201973	0.101989	0.015758
O	0.635813	-0.833437	0.98808
C	0.473694	-1.110232	-0.410843
C	-0.92292	-0.973743	-0.968507
C	-1.690847	0.19771	-0.325452
O	-2.159779	-0.149165	0.975718
C	-0.843759	1.451498	-0.275875
C	0.478103	1.398349	-0.10232
H	3.079148	0.767544	0.834581
H	3.128593	-0.853694	0.118849
H	3.077157	0.583281	-0.926279
H	1.056019	-1.96349	-0.762042
H	-0.848097	-0.82889	-2.054046
H	-1.495007	-1.891952	-0.797128
H	-2.596015	0.38978	-0.910115
H	-1.361744	-0.342472	1.488177
H	-1.355118	2.408157	-0.324895
H	1.073062	2.304915	-0.031661
