19

O	-2.71868	-1.101206	-0.000233
C	-1.330547	-0.943833	-0.000174
C	-0.949373	0.537062	0.000132
O	-1.845157	1.357588	0.000189
C	0.512116	0.950025	0.000299
C	1.279975	0.386567	-1.240727
C	2.137722	-0.713813	-0.665703
C	2.137677	-0.714274	0.665252
C	1.279956	0.385739	1.241005
H	-3.068636	-0.194875	-0.000174
H	-0.875577	-1.427744	0.878069
H	-0.875524	-1.427296	-0.878643
H	0.504733	2.040889	0.000705
H	0.604321	0.037633	-2.030316
H	1.896973	1.169436	-1.700328
H	2.70905	-1.388803	-1.293005
H	2.708964	-1.389725	1.292099
H	0.604284	0.036262	2.030325
H	1.896946	1.168323	1.701111
