19

C	2.264506	-0.69435	0.69988
O	2.372044	0.594784	0.090588
C	1.487559	-0.358433	-0.502819
C	0.030316	-0.042188	-0.453345
C	-0.476881	1.305843	-0.906933
C	-0.574813	0.914963	0.546995
C	-1.883835	0.280349	0.975384
O	-2.198253	-0.670686	-0.040979
C	-0.978065	-1.179101	-0.567865
H	3.149055	-1.323858	0.616954
H	1.766724	-0.709718	1.668009
H	1.848651	-0.750948	-1.455949
H	0.274214	2.045855	-1.159077
H	-1.388376	1.344144	-1.495356
H	0.043771	1.424907	1.275133
H	-1.768423	-0.208089	1.957015
H	-2.726739	0.976825	1.034909
H	-0.622342	-2.050324	0.008076
H	-1.179576	-1.504081	-1.594364
