19

C	-2.168351	-0.038593	-1.269891
C	-1.426509	0.424934	-0.000893
C	-2.167401	-0.032755	1.270801
C	-0.001651	-0.019183	-0.000419
C	1.186371	0.650766	-0.000665
O	1.301952	2.01068	-0.001545
C	2.233584	-0.32925	0.000362
C	1.602088	-1.532403	0.001443
O	0.259121	-1.369524	0.000953
H	-2.193153	-1.131569	-1.324787
H	-3.20146	0.324145	-1.267883
H	-1.675112	0.33306	-2.172726
H	-1.391087	1.520838	-0.003403
H	-1.673511	0.343136	2.171521
H	-3.200543	0.329893	1.267883
H	-2.192069	-1.125475	1.330783
H	2.234724	2.241563	-0.003941
H	3.299158	-0.155661	0.00043
H	1.955676	-2.550266	0.002441
