19

C	-0.625728	2.022491	0.006969
C	-0.802634	0.540107	0.044382
O	-1.927944	0.016758	0.781865
C	-1.776013	-0.372823	-0.588182
C	-0.764668	-1.531483	-0.622851
C	0.245054	-0.569531	0.051492
C	1.273933	-0.851512	1.115198
C	1.712474	-0.45269	-0.261629
O	2.320134	0.804667	-0.36835
H	-1.599248	2.508244	-0.099552
H	-0.158806	2.38348	0.92924
H	0.017037	2.323939	-0.824586
H	-2.604726	-0.171932	-1.258298
H	-1.061557	-2.417588	-0.0555
H	-0.466956	-1.821686	-1.635246
H	1.399173	-0.10533	1.893226
H	1.429388	-1.876263	1.435549
H	2.145544	-1.226099	-0.898196
H	2.188115	1.124484	-1.26703
