19

C	2.356308	1.362525	0.667811
C	2.693224	0.145412	-0.164885
O	3.633636	0.106332	-0.919318
C	1.802312	-1.1036	0.013317
C	0.390137	-0.846412	0.256456
C	-0.77678	-0.627797	0.462249
C	-2.193474	-0.348009	0.65837
C	-2.851599	0.280134	-0.587444
O	-4.213674	0.591056	-0.367249
H	1.391201	1.769589	0.349564
H	2.243973	1.08968	1.722773
H	3.136074	2.115513	0.551381
H	1.954699	-1.730245	-0.870951
H	2.230181	-1.659003	0.862123
H	-2.724566	-1.276087	0.912797
H	-2.339541	0.33224	1.506155
H	-2.355725	1.226452	-0.822259
H	-2.714065	-0.385372	-1.451722
H	-4.702697	-0.235381	-0.30257
