19

O	-3.911964	-0.360946	-0.13372
C	-2.944682	0.418744	0.555331
C	-1.586809	0.258299	0.036787
C	-0.478413	0.066586	-0.397074
C	0.874185	-0.155744	-0.922995
C	1.806863	1.048222	-0.681996
C	2.295622	0.770938	0.746976
C	2.356465	-0.767323	0.787226
O	1.526343	-1.250784	-0.276806
H	-3.581321	-1.264831	-0.165719
H	-3.269809	1.459656	0.447133
H	-2.946817	0.198059	1.635157
H	0.805047	-0.412595	-1.985907
H	2.635488	1.000806	-1.395408
H	1.3009	2.008138	-0.795503
H	3.259752	1.233724	0.968506
H	1.5663	1.145682	1.470776
H	3.373267	-1.142398	0.616317
H	2.002773	-1.170731	1.74333
