19

C	-2.345659	0.541624	0.826517
C	-1.124237	0.18365	0.006524
O	-1.3844	-0.786756	-1.041387
C	-0.577687	-1.17808	0.074418
C	0.897436	-1.44283	-0.16833
O	1.700886	-0.667278	0.708563
C	2.101219	0.572399	0.173577
C	1.032593	1.508751	-0.316785
C	-0.288027	1.350892	-0.399291
H	-2.950378	-0.346949	1.022897
H	-2.052881	0.990276	1.781471
H	-2.967483	1.267268	0.290708
H	-1.071685	-1.875895	0.752371
H	1.135209	-2.491053	0.039176
H	1.134553	-1.238196	-1.220609
H	2.675633	1.066958	0.967564
H	2.809435	0.414841	-0.66277
H	1.449554	2.447073	-0.683389
H	-0.867674	2.179521	-0.804602
