19

C	-2.233626	0.290396	-0.410483
C	-1.904635	-0.851947	0.583982
C	-0.384161	-0.81709	0.670778
C	0.377271	-0.82953	-0.645517
C	1.88956	-0.846925	-0.540317
O	2.242476	0.174914	0.399757
C	1.257909	1.201412	0.362505
C	-0.017476	0.480227	0.011614
O	-1.139513	1.212034	-0.361988
H	-2.334952	-0.103875	-1.430862
H	-3.146501	0.838625	-0.165441
H	-2.32407	-0.641621	1.573064
H	-2.315384	-1.80733	0.243582
H	0.104731	-1.162953	1.575982
H	-0.089619	-1.199046	-1.551991
H	2.313231	-1.782386	-0.158759
H	2.332733	-0.644581	-1.528387
H	1.247319	1.682905	1.345581
H	1.479749	1.96543	-0.400295
