19

O	-2.25475	-1.936348	0.152713
C	-1.396701	-1.287899	-0.387031
C	-0.784272	-0.027026	0.215489
C	0.466978	0.467946	-0.512898
C	1.679218	-0.405363	-0.266372
C	3.066128	0.164799	-0.402887
C	2.529275	-0.189854	0.963004
C	-1.895377	1.025183	0.304005
O	-1.779222	2.160256	-0.071695
H	-1.019184	-1.551493	-1.400753
H	-0.560365	-0.281544	1.2627
H	0.253504	0.528838	-1.588587
H	0.671466	1.495001	-0.195372
H	1.566344	-1.441242	-0.579611
H	3.842333	-0.460335	-0.82973
H	3.156522	1.216941	-0.652383
H	2.939627	-1.055933	1.469956
H	2.263163	0.627318	1.626207
H	-2.833125	0.644466	0.759567
