19

O	2.480106	-0.25	-0.053848
C	1.222683	-0.32702	-0.686779
C	0.433928	-1.576885	-0.217294
C	-0.402635	-0.69996	0.765874
C	-1.92772	-0.706546	0.572644
C	-2.136334	0.332069	-0.508347
C	-1.019848	0.993933	-0.819159
C	0.155072	0.562214	0.015017
O	0.781046	1.625147	0.709329
H	2.525413	0.619748	0.363341
H	1.323633	-0.186949	-1.771942
H	-0.175098	-2.028346	-1.005246
H	1.066986	-2.34044	0.236183
H	-0.077367	-0.790377	1.802758
H	-2.292307	-1.694794	0.263987
H	-2.485341	-0.448574	1.483393
H	-3.103322	0.498556	-0.972279
H	-0.932002	1.780069	-1.561757
H	0.109323	2.123098	1.18598
