19

C	2.516195	-1.910971	0.005797
O	1.440585	-1.007594	-0.127359
C	1.819588	0.332527	0.064434
C	0.632846	1.283152	-0.112199
O	0.787662	2.459028	0.119768
C	-0.693288	0.704908	-0.573314
C	-1.436409	0.005125	0.596675
C	-2.730251	-0.522566	0.186023
C	-3.793723	-0.949656	-0.176181
H	2.9614	-1.865755	1.011307
H	2.120861	-2.914651	-0.164174
H	3.307558	-1.707149	-0.731557
H	2.24209	0.498299	1.068631
H	2.595313	0.637736	-0.659028
H	-1.299138	1.527905	-0.957657
H	-0.524752	-0.028834	-1.365734
H	-0.808534	-0.805814	0.979741
H	-1.574668	0.722081	1.415385
H	-4.735859	-1.330417	-0.483601
