19

C	0.690922	2.056248	-0.397244
C	-0.327941	0.95027	-0.621534
C	-1.324302	0.66655	0.555123
O	-0.259795	-0.101786	1.21195
C	0.03703	-0.52178	-0.172319
C	1.376144	-1.200345	-0.314332
O	2.421551	-0.456238	0.276567
C	-1.259896	-1.265369	-0.543131
C	-2.19119	-0.453045	-0.039324
H	1.535409	1.95933	-1.085172
H	0.224905	3.032584	-0.573212
H	1.083128	2.040409	0.621091
H	-0.785796	1.023163	-1.611651
H	-1.766283	1.445261	1.175829
H	1.305391	-2.210343	0.122738
H	1.619441	-1.318761	-1.376299
H	2.097737	-0.187566	1.144953
H	-1.343331	-2.197043	-1.083831
H	-3.269254	-0.518012	-0.046015
