19

C	3.763836	-0.040307	-0.3143
C	2.32993	-0.092491	-0.068567
C	1.141746	-0.126576	0.128929
C	-0.275033	-0.153308	0.376244
C	-0.915731	1.173069	0.794894
O	-1.036643	2.075842	-0.283606
C	-0.900187	-1.438374	0.931864
C	-1.127347	-1.049435	-0.499319
O	-2.357016	-0.507981	-0.899099
H	4.329148	-0.524988	0.489812
H	4.026907	-0.541279	-1.252791
H	4.113057	0.995782	-0.385807
H	-1.891021	0.969907	1.257443
H	-0.282509	1.660224	1.541953
H	-1.646578	1.664497	-0.907399
H	-0.24415	-2.274742	1.141901
H	-1.726053	-1.308746	1.623758
H	-0.608567	-1.617378	-1.26895
H	-3.024248	-1.201632	-0.876752
