19

C	2.659217	-0.664132	-0.602745
C	1.613463	-0.898928	0.492653
C	0.198324	-0.944592	-0.048056
C	-0.946115	-0.680875	0.885924
C	-2.270786	-0.818321	0.144656
O	-1.822157	0.063991	-0.92131
C	-0.607262	0.333205	-0.215224
C	-0.13971	1.725358	-0.151433
O	0.805656	2.119068	0.493932
H	2.595747	-1.428638	-1.384974
H	2.520497	0.314018	-1.071626
H	3.670465	-0.695083	-0.186536
H	1.814633	-1.851577	0.99983
H	1.691673	-0.109415	1.24453
H	0.028326	-1.663882	-0.849527
H	-0.813412	-0.56032	1.953067
H	-2.535907	-1.814536	-0.227018
H	-3.122669	-0.378065	0.674181
H	-0.760129	2.412736	-0.767564
