19

C	2.501044	-0.348494	-0.197685
C	1.074153	-0.795201	0.110364
C	0.468816	-0.168243	1.427746
C	-0.864364	0.476299	0.963954
C	-0.513601	1.666306	0.060612
O	0.096259	1.065363	-1.113019
C	0.03576	-0.357279	-0.945683
C	-1.258266	-0.52216	-0.135248
O	-2.222711	-1.214156	-0.28672
H	3.16955	-0.586171	0.636367
H	2.888828	-0.846852	-1.092253
H	2.535918	0.730177	-0.372874
H	1.044271	-1.889307	0.183628
H	0.29553	-0.932033	2.189842
H	1.137565	0.584891	1.856672
H	-1.607747	0.67318	1.733419
H	-1.40164	2.234017	-0.244485
H	0.202992	2.355187	0.523282
H	0.085085	-0.840108	-1.920045
