19

C	1.972198	0.023084	-1.033959
O	2.873611	-0.408683	0.001343
C	1.971589	0.027585	1.034222
C	1.020652	0.691782	-0.001632
C	-0.424668	0.335942	-0.000983
C	-1.465968	1.16672	-0.001272
C	-2.753156	0.397874	9.2e-05
O	-2.366296	-0.974035	0.001222
C	-0.947961	-1.083909	0.000594
H	2.45478	0.697341	-1.750484
H	1.537263	-0.823825	-1.580965
H	1.536194	-0.816932	1.584544
H	2.453726	0.704939	1.748117
H	1.128844	1.778417	-0.00399
H	-1.421405	2.249124	-0.002369
H	-3.373002	0.61294	0.885525
H	-3.373882	0.611234	-0.885134
H	-0.61811	-1.652183	0.884947
H	-0.619041	-1.653768	-0.883082
