19

C	-0.506291	1.419119	-0.83363
O	0.834261	1.436069	-0.341373
C	1.277331	0.277593	0.350809
C	1.291162	-0.98655	-0.515302
O	0.005494	-1.387949	-0.975873
C	-1.10609	-1.009911	-0.208945
C	-1.455099	0.456375	-0.134381
C	-0.983041	-0.285065	1.106566
C	0.412095	0.040325	1.592042
H	-0.875295	2.445154	-0.726666
H	-0.491432	1.182384	-1.908216
H	2.311479	0.498682	0.634752
H	1.899142	-0.826182	-1.411071
H	1.752761	-1.797289	0.071187
H	-1.903921	-1.734597	-0.333755
H	-2.50223	0.735724	-0.201467
H	-1.725175	-0.513865	1.865755
H	0.414257	0.938853	2.21807
H	0.821971	-0.785129	2.186421
