19

C	2.022654	1.489239	-0.030575
C	0.964499	0.418229	-0.155777
C	1.276644	-0.873709	-0.949091
O	0.814795	-1.707178	0.146562
C	0.588281	-0.54636	0.991069
C	-0.846144	0.006579	1.031016
C	-1.516389	-0.162524	-0.308145
O	-2.821776	0.334097	-0.40906
C	-0.501268	0.92478	-0.165242
H	1.769064	2.198496	0.764873
H	3.001119	1.055065	0.200155
H	2.118021	2.060232	-0.961907
H	0.718403	-1.052059	-1.875243
H	2.346949	-1.028997	-1.137214
H	1.12747	-0.60124	1.940722
H	-1.42854	0.222472	1.919025
H	-1.31916	-1.054499	-0.898824
H	-3.41142	-0.306162	0.002947
H	-0.795735	1.953941	-0.334081
