19

C	2.515735	-0.10886	-0.279872
C	1.040651	-0.118656	-0.000388
C	0.131965	-1.24359	-0.461754
C	-1.279879	-0.93267	-0.925863
O	-1.857931	-0.13094	0.121075
C	-0.819169	0.170784	1.060402
C	0.229233	-0.95168	1.007142
C	0.208342	1.11957	0.376422
O	-0.285381	1.98338	-0.612655
H	2.726718	0.357006	-1.249053
H	3.057547	0.457964	0.485851
H	2.92854	-1.123106	-0.30155
H	0.627575	-2.122625	-0.858826
H	-1.30695	-0.38007	-1.873154
H	-1.876273	-1.84636	-1.039516
H	-1.280902	0.473	1.998692
H	0.53463	-1.636864	1.785796
H	0.761793	1.709738	1.117423
H	-1.187461	1.682403	-0.789558
