19

O	-2.692424	-0.723767	0.114818
C	-1.887595	0.37192	0.410162
C	-1.308408	1.210012	-0.727381
C	-0.442754	0.262231	0.043975
O	-0.037431	-0.994914	-0.529988
C	1.15642	-1.007384	0.300611
C	2.389203	-0.44802	-0.437788
C	2.037415	0.984954	0.076299
C	0.824756	0.407382	0.862718
H	-2.087451	-1.437223	-0.137858
H	-2.171825	0.881391	1.328154
H	-1.580698	0.914316	-1.735432
H	-1.176899	2.276779	-0.572492
H	1.239071	-1.928608	0.88099
H	3.335716	-0.828512	-0.044471
H	2.364495	-0.60451	-1.518042
H	2.806424	1.417106	0.719809
H	1.774513	1.718406	-0.689632
H	0.721283	0.653736	1.91876
