19

C	-2.631928	-0.481125	-0.612342
C	-1.316076	-0.048294	-0.029103
C	-0.859982	1.40399	-0.124104
C	0.618169	1.385122	0.339203
C	1.09744	-0.03532	0.048322
C	2.464762	-0.518895	0.242652
O	1.965592	-0.251857	-1.073874
C	-0.124338	-0.906093	0.08195
O	-0.948689	-0.647441	1.230126
H	-3.461491	0.040578	-0.122371
H	-2.676341	-0.251645	-1.682033
H	-2.779378	-1.55534	-0.476991
H	-0.942532	1.732435	-1.166523
H	-1.482448	2.069736	0.481667
H	1.240915	2.117585	-0.178243
H	0.680123	1.578305	1.413035
H	3.230887	0.169215	0.598663
H	2.645272	-1.5687	0.471486
H	-0.07852	-1.934085	-0.26818
