19

C	0.394589	2.34734	-0.110325
C	0.902107	0.975318	-0.499184
C	1.691925	0.202137	0.548452
C	2.160618	-1.113692	-0.054546
O	0.814841	-1.427897	-0.51024
C	0.304369	-0.248125	0.135598
C	-1.025613	-0.384652	0.820605
C	-2.144088	-0.620737	-0.182159
O	-3.1819	-0.010629	-0.194062
H	0.14199	2.398854	0.953654
H	1.157004	3.10981	-0.301238
H	-0.502014	2.616371	-0.678042
H	1.211273	0.873025	-1.538718
H	2.044223	0.655131	1.466085
H	2.878744	-1.066182	-0.88183
H	2.495237	-1.850935	0.684091
H	-0.989814	-1.253434	1.492883
H	-1.269461	0.501131	1.411263
H	-1.934147	-1.421092	-0.924372
