19

C	-1.363134	1.634922	-1.5e-05
C	-1.022963	0.146129	-2.5e-05
C	-2.302097	-0.691576	6e-06
C	0.077893	-0.427348	0.976263
O	0.332203	-1.468081	-2e-06
C	0.077927	-0.427367	-0.97628
C	1.277105	0.532431	-0.732012
O	2.34421	-0.072505	2.5e-05
C	1.277086	0.53244	0.732018
H	-0.484228	2.281379	-4.3e-05
H	-1.965058	1.885227	-0.880837
H	-1.964986	1.88522	0.880861
H	-2.91049	-0.463088	0.882469
H	-2.910907	-0.462578	-0.882029
H	-2.077565	-1.759033	-0.000322
H	-0.135701	-0.790076	1.981862
H	-0.135622	-0.790104	-1.981886
H	1.52119	1.369969	-1.375039
H	1.521146	1.369988	1.375043
