19

O	1.561585	1.81107	-0.320347
C	0.936729	0.813454	0.434789
C	1.761953	-0.456568	0.706807
O	2.03158	-1.009131	-0.593971
C	0.766932	-1.298852	0.024799
C	-0.157249	-0.105403	-0.263633
C	-1.493682	-0.133074	0.428123
C	-2.591022	0.807919	-0.003643
C	-2.7141	-0.669776	-0.281103
H	2.020671	1.351996	-1.035709
H	0.542605	1.283076	1.339916
H	2.476339	-0.676688	1.492106
H	0.516606	-2.342586	0.175291
H	-0.275554	0.100017	-1.332846
H	-1.44116	-0.339685	1.495142
H	-3.225665	1.243856	0.759597
H	-2.387605	1.466702	-0.841247
H	-3.433145	-1.244428	0.292183
H	-2.595776	-1.003972	-1.306723
