19

C	-1.947274	-1.350774	-0.362034
C	-0.990647	-0.272359	0.069098
O	-1.581975	0.881645	0.691694
C	-0.881004	1.063042	-0.549955
C	0.496088	1.665269	-0.34226
C	1.272826	0.586884	0.434131
O	2.081174	-0.239988	-0.440485
C	1.338206	-1.425924	-0.098099
C	0.329997	-0.61189	0.736969
H	-2.288543	-1.929408	0.503637
H	-2.825006	-0.912762	-0.843287
H	-1.474738	-2.04464	-1.064469
H	-1.502799	1.365366	-1.389945
H	1.006009	1.865524	-1.289616
H	0.419573	2.605523	0.213215
H	1.870254	0.983377	1.261274
H	0.949767	-1.939589	-0.986315
H	1.943754	-2.133948	0.482187
H	0.198977	-0.918184	1.77655
