19

C	2.720235	-0.431117	0.26854
C	1.227556	-0.544039	0.487459
C	0.306621	-0.762903	-0.706657
C	-1.020993	-1.477767	-0.470682
C	-1.805381	-0.519169	0.421669
O	-2.098866	0.740499	-0.19606
C	-1.004214	0.668994	0.739455
C	0.319644	0.564194	0.039827
O	0.895528	1.726223	-0.465559
H	3.201507	0.087836	1.104069
H	3.176925	-1.422503	0.17943
H	2.940894	0.134825	-0.639268
H	0.94119	-1.051416	1.407745
H	0.779879	-0.81828	-1.680659
H	-1.562687	-1.660435	-1.404962
H	-0.892804	-2.446226	0.028686
H	-2.577295	-0.89226	1.090076
H	-1.124136	1.257019	1.646353
H	0.282423	2.088496	-1.116184
