19

C	2.807811	0.625105	-0.331185
C	1.547511	0.112524	0.361843
O	1.209848	-1.120148	-0.252193
C	-0.023554	-1.646873	0.186206
C	-1.191058	-0.687436	-0.027899
O	-2.326306	-1.094143	-0.172841
C	-0.858851	0.756788	0.042726
C	-1.994936	1.729479	-0.09412
C	0.414142	1.101865	0.288016
H	3.595555	-0.129534	-0.269703
H	2.603131	0.830108	-1.385611
H	3.163176	1.543467	0.14484
H	1.782258	-0.06489	1.431095
H	-0.208594	-2.565344	-0.374906
H	0.009541	-1.907952	1.260494
H	-2.781109	1.51367	0.636189
H	-1.654312	2.759122	0.040026
H	-2.461876	1.640215	-1.080697
H	0.677502	2.146749	0.445021
