19

C	-1.093481	-1.641072	0.943184
C	-0.253407	-0.665601	0.141543
C	0.548012	-1.205022	-1.075252
O	1.754439	-0.561509	-0.625077
C	1.134341	-0.167327	0.624219
C	1.073745	1.35363	0.782385
C	-0.03222	1.800001	-0.188834
C	-1.007144	0.618844	-0.233726
O	-2.180381	0.672631	-0.50111
H	-1.375963	-1.217618	1.91274
H	-2.018443	-1.866903	0.404404
H	-0.552513	-2.57468	1.124177
H	0.638912	-2.299514	-1.077113
H	0.241316	-0.87036	-2.073431
H	1.58906	-0.683952	1.476834
H	0.798003	1.59446	1.816226
H	2.045533	1.811121	0.580121
H	-0.548428	2.721703	0.084591
H	0.370982	1.936043	-1.200166
