19

C	3.120868	0.064421	0.198837
C	1.634779	-0.086969	0.430291
C	0.791533	-0.850235	-0.530014
O	-0.395988	-1.431083	-0.049955
C	-1.267798	-0.418809	0.457705
C	-2.689247	-0.634649	-0.038946
C	-0.680746	0.932631	-0.003644
O	-1.274802	1.982054	0.019664
C	0.682681	0.659443	-0.529584
H	3.360291	0.039955	-0.869329
H	3.492149	1.012698	0.600848
H	3.671915	-0.748209	0.683814
H	1.330068	-0.125523	1.472903
H	1.233508	-1.412596	-1.345156
H	-1.255546	-0.437656	1.559107
H	-3.087545	-1.581854	0.332938
H	-3.320619	0.185595	0.312585
H	-2.712722	-0.650784	-1.132138
H	1.102408	1.315607	-1.281101
