19

O	2.112356	-0.388183	-0.759804
C	1.44791	0.171358	0.353792
C	0.726779	1.522175	0.059815
C	-0.783981	1.267867	0.153894
C	-1.454144	0.492796	-1.031896
C	-1.471128	-0.793055	-0.181579
O	-0.22432	-1.530397	-0.258181
C	0.340074	-0.786578	0.86423
C	-0.9716	0.000774	1.052042
H	1.454778	-0.951637	-1.19376
H	2.207297	0.316433	1.129962
H	1.018401	2.263283	0.812734
H	1.039077	1.909119	-0.914165
H	-1.340928	2.156292	0.455343
H	-2.46403	0.857181	-1.242307
H	-0.898219	0.429473	-1.971446
H	-2.333343	-1.461007	-0.22378
H	0.670783	-1.473295	1.648016
H	-1.461567	0.050776	2.021489
