19

C	-0.039417	0.61244	1.567409
C	0.737061	0.16497	0.351038
C	1.736028	0.900452	-0.533986
O	2.477314	-0.320491	-0.743254
C	1.62496	-1.058828	0.164891
C	-0.749771	0.1837	0.320294
C	-1.715536	0.930331	-0.593516
C	-2.463516	-0.420385	-0.630775
O	-1.496957	-1.032342	0.258075
H	-0.071588	-0.065133	2.416111
H	-0.038302	1.668316	1.825728
H	1.347338	1.315495	-1.474247
H	2.339961	1.6666	-0.028029
H	1.147437	-1.92077	-0.315918
H	2.170954	-1.392882	1.057066
H	-2.259689	1.753574	-0.126974
H	-1.298752	1.264031	-1.546268
H	-3.467826	-0.420865	-0.193846
H	-2.491249	-0.921769	-1.604316
