19

C	2.51827	-0.480319	-0.113137
C	1.854101	0.638342	0.712515
C	0.564617	0.200536	-0.01613
C	-0.351514	1.236867	-0.72213
C	-1.509772	0.881545	0.253286
C	-2.41169	-0.248172	-0.260905
O	-1.457073	-1.256139	0.14992
C	-0.642073	-0.281939	0.825344
O	1.280738	-0.756323	-0.804048
H	3.310785	-0.169956	-0.803385
H	2.865973	-1.346848	0.461855
H	1.856102	0.506167	1.796678
H	2.189456	1.64887	0.471111
H	0.012058	2.266239	-0.666669
H	-0.556651	0.992211	-1.767946
H	-1.948256	1.681361	0.84656
H	-3.360541	-0.359453	0.280608
H	-2.607014	-0.273158	-1.340042
H	-0.482865	-0.526906	1.881198
