19

C	-1.992179	-0.377738	-0.963196
C	-0.972234	0.089374	0.083927
O	-1.630975	0.335641	1.339665
C	-0.256176	1.333922	-0.385496
C	1.060165	1.520793	-0.359471
C	2.054965	0.509927	0.137212
C	1.445691	-0.840856	0.425943
O	0.803998	-1.501871	-0.674072
C	-0.007561	-1.040279	0.404923
H	-2.70126	0.425905	-1.193677
H	-1.485628	-0.666751	-1.887965
H	-2.55611	-1.234541	-0.582696
H	-2.207477	1.098081	1.222881
H	-0.902396	2.124738	-0.764887
H	1.471651	2.463846	-0.711731
H	2.870213	0.393658	-0.590357
H	2.532348	0.883503	1.054778
H	2.048289	-1.506649	1.044122
H	-0.449838	-1.822801	1.021724
