19

O	-1.366619	1.78778	0.052097
C	-1.44618	0.460218	-0.364278
C	-1.280655	-0.746274	0.608825
C	0.063999	-0.472657	1.316089
C	0.860855	-0.09398	0.046861
C	2.294421	-0.437472	-0.199435
C	1.888009	1.011555	-0.037686
C	-0.240044	-0.286106	-0.995353
O	-0.870464	-1.526331	-0.556034
H	-0.476902	1.946569	0.386854
H	-2.345805	0.344163	-0.969112
H	-2.099613	-1.185817	1.177309
H	-0.00325	0.331484	2.056287
H	0.447564	-1.370943	1.805378
H	2.851964	-0.898352	0.609379
H	2.579841	-0.78038	-1.188898
H	2.177452	1.519375	0.877413
H	1.901243	1.644843	-0.919753
H	0.02174	-0.254243	-2.053498
