19

C	-2.752803	0.383843	0.314982
C	-1.787079	-0.68114	-0.215491
C	-0.341342	-0.241062	-0.198747
C	0.746999	-1.308391	-0.57144
O	1.915935	-0.797673	0.073779
C	1.437526	0.397541	0.740622
O	0.134094	0.053824	1.137617
C	1.199581	1.432791	-0.355797
C	0.083714	1.017667	-0.955825
H	-2.494324	0.658266	1.340729
H	-2.716831	1.293596	-0.292652
H	-3.781765	0.013206	0.305393
H	-1.874897	-1.596548	0.381144
H	-2.048888	-0.953665	-1.245776
H	0.489866	-2.28548	-0.147012
H	0.90678	-1.402016	-1.650597
H	2.087348	0.626545	1.58238
H	1.88688	2.214825	-0.646068
H	-0.373978	1.374562	-1.868536
