19

O	2.357635	-0.07715	0.335622
C	1.27256	0.034545	-0.568953
C	0.551591	1.410124	-0.462539
C	-0.813196	1.287854	0.200033
C	-1.742528	0.174563	-0.269896
C	-1.040387	-0.90137	-1.085647
C	0.259715	-1.083777	-0.281058
O	-0.12782	-0.922931	1.100042
C	-1.099938	0.103619	1.089095
H	1.954865	-0.260443	1.195573
H	1.700201	-0.093379	-1.568741
H	1.204974	2.07884	0.105764
H	0.430987	1.855938	-1.457017
H	-1.293985	2.220829	0.478805
H	-2.801188	0.358037	-0.404626
H	-1.630612	-1.822711	-1.099387
H	-0.834131	-0.611242	-2.121142
H	0.727537	-2.065677	-0.373438
H	-1.62407	0.187114	2.032686
