19

O	2.858768	0.512457	-0.017429
C	2.047084	-0.377086	0.046608
C	0.559915	-0.199452	-0.002718
C	-0.239125	-1.095501	-1.00172
C	-1.394808	-1.010677	0.026878
C	-0.30424	-0.862801	1.123593
C	-2.107487	0.340196	-0.132591
O	-1.251624	1.423076	0.203642
C	0.107766	1.257942	-0.177013
H	2.368867	-1.441074	0.148744
H	-0.404046	-0.691763	-2.005499
H	0.181325	-2.103135	-1.074795
H	-2.110576	-1.833824	0.083009
H	-0.52561	-0.254117	2.002034
H	0.106779	-1.829851	1.425231
H	-2.489157	0.441187	-1.162703
H	-2.960949	0.416957	0.54977
H	0.270439	1.57347	-1.219628
H	0.691145	1.922168	0.465906
