19

O	-2.76176	-0.083318	-0.202976
C	-1.50811	-0.010746	0.450548
C	-0.595119	1.092407	-0.147831
C	0.72704	1.286326	0.637821
C	1.295668	-0.004677	0.003178
O	2.65894	-0.08612	-0.273404
C	0.723545	-1.291482	0.623761
C	-0.597891	-1.09627	-0.15955
C	0.097618	0.002368	-1.041532
H	-3.23993	0.731852	-0.017572
H	-1.629813	-0.015262	1.545365
H	-1.096917	1.98355	-0.528952
H	1.266277	2.160532	0.252817
H	0.687502	1.354303	1.730622
H	2.947071	0.754537	-0.644884
H	1.27784	-2.147299	0.22931
H	0.680487	-1.363471	1.715584
H	-1.110116	-1.976652	-0.544745
H	0.18365	0.005852	-2.124863
