19

C	2.397506	-1.117685	-0.457022
C	1.502771	0.115425	-0.29608
C	1.994475	1.028431	0.846491
C	0.057448	-0.239641	-0.09732
C	-0.544462	-1.400369	0.172839
C	-2.024807	-1.188378	0.273799
O	-2.219531	0.202936	0.031608
C	-1.007382	0.801076	-0.197548
O	-0.901372	1.972336	-0.438101
H	2.405386	-1.723751	0.45636
H	2.063818	-1.753846	-1.282931
H	3.42958	-0.816057	-0.658712
H	1.55057	0.709124	-1.219213
H	1.971723	0.497288	1.804454
H	3.024735	1.346409	0.65921
H	1.367473	1.918883	0.92608
H	-0.084155	-2.370999	0.30265
H	-2.589592	-1.763319	-0.471376
H	-2.425616	-1.439061	1.264482
