19

C	-1.988409	-1.679128	-0.214783
C	-0.914825	-0.672573	0.016883
C	-0.914824	0.672575	0.016899
C	-1.9884	1.679137	-0.214779
C	0.556278	0.974108	0.293752
O	0.901132	-1.4e-05	1.345833
C	0.556278	-0.974114	0.293735
C	1.274181	5e-06	-0.713494
O	2.663244	5e-06	-0.68195
H	-2.118462	-2.333178	0.65668
H	-2.950406	-1.202099	-0.422557
H	-1.750162	-2.332096	-1.064054
H	-2.950496	1.202108	-0.422098
H	-2.118133	2.333486	0.656504
H	-1.75037	2.331804	-1.064344
H	0.893866	1.991916	0.49022
H	0.893859	-1.991928	0.490184
H	0.952243	1.3e-05	-1.756927
H	2.901378	-1.2e-05	0.256047
