19

C	-1.139437	1.243437	1.280956
C	-0.466352	0.201478	0.372422
C	0.082091	-1.057724	1.059292
C	1.287753	-1.491205	0.195133
C	1.92752	-0.170241	-0.258137
C	0.769884	0.821614	-0.335075
O	0.778592	1.908428	-0.852812
C	-1.448291	-0.147722	-0.749916
O	-1.789017	-1.26266	-1.046352
H	-0.459265	1.54128	2.084224
H	-1.395381	2.139289	0.708822
H	-2.049723	0.84147	1.736311
H	0.411276	-0.806109	2.073862
H	-0.67524	-1.840824	1.130869
H	1.981888	-2.134895	0.739696
H	0.928293	-2.05284	-0.672371
H	2.626641	0.213412	0.497566
H	2.472696	-0.207785	-1.204369
H	-1.836787	0.743037	-1.289354
