19

C	0.286104	1.19567	1.375152
C	0.459628	0.569472	-0.017165
C	0.84949	1.62041	-1.05305
C	-0.697998	-0.43175	-0.460202
C	0.206108	-1.646809	-0.086265
C	1.381267	-0.669228	0.039203
O	2.569825	-0.795297	0.073614
C	-2.016289	-0.332253	0.255143
O	-3.045012	0.036886	-0.251121
H	0.048531	0.454458	2.144512
H	1.215684	1.691208	1.670296
H	-0.51262	1.944728	1.367851
H	0.990884	1.176536	-2.043087
H	0.075495	2.391098	-1.132141
H	1.78777	2.104421	-0.764824
H	-0.880143	-0.352488	-1.533481
H	-0.057038	-2.089365	0.882323
H	0.309145	-2.451652	-0.816819
H	-1.986075	-0.634726	1.328536
