19

O	1.975358	-0.84057	0.963357
C	1.784844	-0.274547	-0.315717
C	1.551398	1.283757	-0.291958
C	0.072373	0.967829	-0.284114
C	-1.033577	1.377839	0.316446
C	-2.209494	0.432576	0.388545
O	-1.998881	-0.814548	-0.253598
C	-0.697767	-1.375913	-0.0735
C	0.296844	-0.449131	-0.761904
H	2.826526	-0.542734	1.299278
H	2.542796	-0.631394	-1.025486
H	1.966523	1.828633	0.561513
H	1.894885	1.755065	-1.219901
H	-1.111736	2.321724	0.849748
H	-2.464103	0.276934	1.453418
H	-3.100987	0.859969	-0.087472
H	-0.445694	-1.472866	0.990483
H	-0.745547	-2.374612	-0.515675
H	0.237796	-0.554242	-1.850761
