19

C	2.425341	0.621715	-0.580317
C	1.683415	-0.32907	0.334644
O	1.016184	-1.413932	-0.364083
C	-0.225686	-1.168974	0.320933
C	-1.210558	-0.316946	-0.525371
C	-2.697453	-0.468541	-0.196676
C	-0.576311	0.9363	0.12605
O	-0.798427	2.109318	0.035888
C	0.355525	0.100377	1.018539
H	1.756985	1.075426	-1.316869
H	2.890344	1.422515	0.004111
H	3.215312	0.084419	-1.114309
H	2.372115	-0.748321	1.080877
H	-0.615003	-2.047003	0.841054
H	-1.032756	-0.404337	-1.601504
H	-3.270536	0.344357	-0.650901
H	-3.083643	-1.420327	-0.573574
H	-2.87454	-0.436028	0.884047
H	0.374027	0.317053	2.085823
