19

O	-3.658006	0.237636	-0.440954
C	-2.613709	-0.238008	0.391383
C	-1.223424	0.039792	-0.180623
C	-0.101996	-0.533181	0.69432
C	1.282986	-0.247504	0.138721
C	2.344315	-1.27367	0.212083
O	1.651305	-1.039112	-1.008852
C	1.669971	1.144674	0.075491
C	1.965755	2.309523	0.047541
H	-3.553904	1.190745	-0.526231
H	-2.690613	0.179907	1.409449
H	-2.776518	-1.318435	0.477788
H	-1.159185	-0.386637	-1.187485
H	-1.083798	1.124373	-0.283321
H	-0.163695	-0.120753	1.709397
H	-0.21324	-1.620071	0.778086
H	3.387235	-0.962964	0.22821
H	2.125569	-2.219703	0.7065
H	2.238372	3.335597	0.012556
