19

C	-2.472954	-0.829789	-0.10188
C	-1.340485	-0.070341	0.566359
O	-1.221344	1.302544	0.069772
C	-0.04263	1.00817	-0.723458
C	1.279025	1.503633	-0.082033
C	1.360735	0.169553	0.713484
C	1.957565	-1.06686	-0.009866
O	0.637712	-1.536129	-0.42297
C	0.062357	-0.338043	0.048407
H	-2.510424	-1.859099	0.2697
H	-3.428586	-0.345196	0.119058
H	-2.341862	-0.860056	-1.187415
H	-1.455685	-0.078145	1.657859
H	-0.214289	1.136255	-1.795443
H	2.098041	1.671278	-0.788502
H	1.149562	2.396594	0.533466
H	1.503968	0.201163	1.793571
H	2.596804	-0.847324	-0.873642
H	2.449856	-1.804721	0.630857
