19

C	2.691848	-0.852141	0.341149
C	1.968199	0.177567	-0.534066
C	0.516592	0.350224	-0.177716
C	-0.450948	1.377847	-0.819515
C	-1.358364	0.901684	0.36531
C	-0.037581	0.800878	1.201408
C	-1.501752	-0.563293	-0.023976
O	-2.434962	-1.306868	-0.045669
O	-0.222372	-0.908945	-0.386367
H	2.211821	-1.830899	0.263948
H	3.735677	-0.956269	0.03261
H	2.683242	-0.553935	1.394737
H	2.45289	1.157711	-0.450009
H	2.030329	-0.114656	-1.589206
H	-0.118412	2.411429	-0.704129
H	-0.784808	1.182246	-1.840961
H	-2.256459	1.415142	0.696096
H	0.335192	1.777824	1.515891
H	0.001239	0.081321	2.021745
