19

C	3.00701	-0.314856	-0.099392
C	1.759103	0.380391	-0.661805
C	0.526464	0.069348	0.122399
C	0.00794	0.675844	1.37743
C	-0.890341	0.60847	0.124042
C	-1.567106	1.787882	-0.508197
C	-1.273168	-0.840735	-0.039171
O	-2.254569	-1.47591	-0.25354
O	0.029377	-1.310814	0.0675
H	3.886137	-0.080173	-0.705974
H	3.206411	0.004658	0.928177
H	2.874726	-1.400327	-0.095449
H	1.898517	1.467905	-0.661901
H	1.599594	0.078524	-1.703556
H	-0.19521	0.05073	2.24125
H	0.350854	1.681979	1.604819
H	-0.942123	2.683258	-0.435907
H	-1.77952	1.60468	-1.565853
H	-2.517267	2.004491	-0.00912
