19

C	2.722094	-0.073355	0.245878
O	1.5796	-0.222411	-0.564098
C	0.563466	0.669236	-0.243874
C	-0.777218	0.60663	-1.010858
C	-1.317402	1.492192	0.176242
C	-0.362433	0.56936	1.022662
C	-1.115685	-0.763217	0.844855
O	-0.524438	-1.725473	-0.035669
C	-1.40427	-0.741272	-0.590547
H	2.51668	-0.324914	1.296958
H	3.481901	-0.758467	-0.136508
H	3.118372	0.955055	0.2085
H	0.957051	1.697287	-0.28657
H	-0.854331	0.911645	-2.053486
H	-1.011445	2.540049	0.13121
H	-2.384374	1.415857	0.394121
H	-0.022105	0.847522	2.019174
H	-1.780018	-1.149147	1.611534
H	-2.314336	-1.109257	-1.052958
