19

C	0.085071	2.084331	0.045615
C	0.005695	0.693587	-0.564619
C	-1.060226	-0.303302	-0.066319
C	-2.275181	-0.050056	0.707754
O	-2.32903	-0.476844	-0.663511
C	-0.022081	-1.423297	0.105264
C	1.05265	-0.351261	-0.122972
C	2.477339	-0.459501	-0.420009
O	2.014933	-0.046918	0.876686
H	0.155181	2.031871	1.135392
H	0.967991	2.620099	-0.317267
H	-0.796499	2.676563	-0.220041
H	-0.039919	0.750235	-1.659186
H	-2.611963	-0.784228	1.438763
H	-2.604133	0.97201	0.889677
H	0.015259	-1.927677	1.073583
H	-0.076567	-2.16825	-0.694277
H	2.952972	-1.439068	-0.454417
H	2.970859	0.315527	-1.00591
