19

C	1.063234	1.736175	0.835583
C	0.295249	0.612449	0.151696
C	-0.730735	1.069753	-0.903904
C	-1.801155	-0.03056	-0.852283
O	-1.832713	-0.477476	0.501748
C	-0.51976	-0.416956	1.019095
C	0.432661	-1.576411	0.584815
C	1.174103	-0.573958	-0.311806
O	2.094758	-0.65329	-1.073593
H	1.713428	1.3557	1.630333
H	1.697895	2.260655	0.114295
H	0.374259	2.462333	1.279908
H	-1.155152	2.032505	-0.600138
H	-0.289857	1.18709	-1.897158
H	-2.804456	0.317195	-1.10999
H	-1.545022	-0.859031	-1.531451
H	-0.585587	-0.243	2.094399
H	1.062017	-1.976166	1.386309
H	-0.045464	-2.414099	0.069075
