19

C	0.400347	2.053323	0.006292
C	-0.233993	0.688712	0.004003
O	-1.654255	0.831266	0.001603
C	-2.125878	-0.517578	-0.000103
C	-0.810365	-1.275225	0.002669
C	0.158058	-0.49757	0.956864
C	1.304743	-0.89768	-0.006859
O	2.482175	-0.128708	-0.091763
C	0.161513	-0.497321	-0.950447
H	1.485721	1.973903	9.5e-05
H	0.072906	2.614888	-0.874396
H	0.07836	2.6099	0.892404
H	-2.73894	-0.710552	0.88977
H	-2.734669	-0.709411	-0.893189
H	-0.818368	-2.365357	0.000774
H	0.145822	-0.50856	2.048567
H	1.541657	-1.969996	-0.007291
H	3.061569	-0.388331	0.631262
H	0.156035	-0.50691	-2.041231
