19

C	3.648792	-1.7e-05	-0.581527
C	2.319937	-1e-06	0.013223
C	1.218441	2.4e-05	0.498979
C	-0.112744	3.1e-05	1.096804
C	-0.938232	1.242701	0.688208
O	-1.325396	1.169174	-0.672365
C	-2.056115	-3.2e-05	-0.930069
O	-1.325357	-1.169207	-0.672321
C	-0.938198	-1.24268	0.688263
H	3.789587	-0.865617	-1.238247
H	3.81458	0.900822	-1.182691
H	4.430696	-0.035143	0.185325
H	-0.021103	7.5e-05	2.191952
H	-1.83118	1.304645	1.333976
H	-0.357698	2.159781	0.803974
H	-2.984081	-3.6e-05	-0.323726
H	-2.297286	-5.3e-05	-1.994446
H	-1.83115	-1.304629	1.334024
H	-0.357627	-2.159734	0.804054
