19

C	-2.771607	-0.521325	0.477938
C	-2.167261	0.415124	-0.517351
O	-1.162008	1.230055	0.096139
C	-0.361027	0.041206	0.375342
C	-1.450965	-0.871582	-0.177868
C	0.91638	0.080371	-0.438037
C	2.047139	0.997397	0.074513
C	2.83579	-0.316163	0.251987
O	1.716163	-1.104681	-0.211596
H	-2.814251	-0.234746	1.525346
H	-3.617484	-1.102155	0.122766
H	-2.644156	0.788264	-1.416072
H	-0.130424	-0.055828	1.444394
H	-1.283054	-1.772989	-0.750612
H	0.667674	0.20164	-1.500349
H	2.450823	1.698159	-0.656466
H	1.814902	1.534964	0.995665
H	3.710982	-0.434184	-0.398381
H	3.121053	-0.576295	1.278214
