19

C	2.439586	-0.882424	-1e-06
C	0.929489	-0.945632	0.0
C	0.026054	0.005385	0.753476
C	0.471161	1.480329	0.785729
C	0.471157	1.48033	-0.78573
C	0.026052	0.005385	-0.753477
O	-1.230366	-0.46922	-1.155234
C	-2.061845	-0.327743	1e-06
O	-1.230365	-0.469219	1.155234
H	2.845722	-1.381452	0.885916
H	2.845723	-1.38148	-0.885902
H	2.81047	0.146123	-1.6e-05
H	0.510833	-1.947032	2e-06
H	-0.303687	2.125864	1.203453
H	1.41546	1.693422	1.294656
H	-0.303689	2.125867	-1.203452
H	1.415456	1.69342	-1.294658
H	-2.548189	0.661627	0.0
H	-2.812184	-1.122636	1e-06
