19

C	3.267988	-0.745516	0.349202
C	2.075864	-0.221216	-0.408027
O	1.775354	1.171669	-0.250786
C	0.837704	0.213499	0.25529
C	-0.506157	0.167834	-0.415589
C	-1.548813	1.199599	0.163438
C	-2.402162	0.012094	0.627261
O	-2.706731	-0.768276	-0.534606
C	-1.434869	-0.958591	0.088701
H	3.259799	-1.840674	0.371503
H	4.199088	-0.42644	-0.130605
H	3.269622	-0.373804	1.37744
H	1.987418	-0.56908	-1.439374
H	0.81322	0.160776	1.34717
H	-0.386251	0.187155	-1.501759
H	-1.13017	1.784025	0.986728
H	-2.030429	1.8681	-0.553021
H	-3.089634	-0.05832	1.462148
H	-1.178982	-1.965102	0.401247
