19

C	2.585641	-0.183851	0.378497
O	1.65162	-0.485431	-0.651637
C	0.351611	-0.355376	-0.273165
C	-0.882314	-0.180329	-1.071393
O	-1.590033	-1.283312	-0.513422
C	-0.67708	-1.202508	0.615524
C	-1.088085	0.113765	1.320784
C	-0.553912	0.831165	0.080152
C	-0.372604	2.298588	-0.16596
H	2.484822	-0.877783	1.223946
H	3.58113	-0.293675	-0.055761
H	2.458184	0.842858	0.744568
H	-1.058062	0.10826	-2.099329
H	-0.539341	-2.14797	1.135643
H	-2.151932	0.202358	1.563829
H	-0.474185	0.321508	2.202283
H	-1.337461	2.817295	-0.207973
H	0.223149	2.771242	0.623461
H	0.141466	2.477118	-1.116832
