19

C	0.948572	1.87652	0.832135
C	0.528945	0.952292	-0.301241
C	1.22729	-0.413537	-0.463456
O	2.37463	-0.753461	-0.506937
C	-0.104551	-1.175553	-0.531146
C	-0.593647	-1.56216	0.881041
O	-1.132774	-0.243992	1.114938
C	-0.831035	0.185341	-0.239555
C	-2.036102	0.733111	-0.95622
H	0.423241	2.835192	0.781288
H	0.723068	1.415594	1.796825
H	2.023262	2.073687	0.780085
H	0.60214	1.463131	-1.272898
H	-0.292622	-1.853583	-1.362531
H	-1.385045	-2.321463	0.87758
H	0.172845	-1.844575	1.61106
H	-2.382676	1.648995	-0.46489
H	-1.797153	0.974165	-1.996867
H	-2.858733	0.012396	-0.943005
