19

O	-3.386666	-0.246068	-0.425675
C	-2.218788	0.175585	0.265764
C	-1.072302	-0.715354	-0.200372
C	0.26071	-0.440592	0.525542
C	1.347297	-1.445763	0.236735
C	2.466286	-0.892521	-0.232907
C	2.364029	0.603669	-0.344216
C	0.92292	0.889816	0.107815
O	0.396157	1.97317	0.119107
H	-4.08323	0.392838	-0.250463
H	-1.98094	1.227114	0.064137
H	-2.343549	0.06923	1.357252
H	-1.358237	-1.760674	-0.032588
H	-0.942176	-0.597853	-1.282229
H	0.053638	-0.385155	1.606221
H	1.198887	-2.508002	0.39777
H	3.362328	-1.438481	-0.504604
H	3.067753	1.14284	0.304081
H	2.528681	0.992279	-1.357191
