19

C	-2.559189	-1.221303	-0.393939
C	-1.506935	-0.439117	0.387907
O	-0.235273	-0.911136	-0.049905
C	0.845372	-0.100993	0.36867
C	0.780311	1.29589	-0.253884
C	-0.617458	1.83552	-0.113395
C	-1.644937	1.05174	0.20435
C	2.116354	-0.862467	0.030331
O	3.187773	-0.342338	-0.139416
H	-2.41122	-2.295012	-0.251583
H	-3.563845	-0.958737	-0.049877
H	-2.483463	-0.995575	-1.461222
H	-1.621107	-0.677575	1.462616
H	0.830447	0.001483	1.471717
H	1.508117	1.949552	0.238308
H	1.079944	1.249649	-1.309044
H	-0.76533	2.900698	-0.269534
H	-2.642972	1.460473	0.338868
H	1.968327	-1.962778	-0.035907
