19

C	0.064393	2.071742	-0.337484
C	-0.220268	0.707022	0.282963
C	-1.465812	-0.025321	-0.297034
O	-2.663451	0.198016	0.434515
C	-1.034597	-1.474917	-0.35805
C	0.266889	-1.627531	-0.115341
C	0.917613	-0.315495	0.146299
C	2.24935	-0.154479	0.74078
O	2.063011	0.021338	-0.664342
H	-0.801214	2.729142	-0.211435
H	0.92835	2.554566	0.12902
H	0.279031	1.979025	-1.40571
H	-0.420602	0.835725	1.355528
H	-1.697417	0.344814	-1.304158
H	-2.543552	-0.186154	1.310497
H	-1.737577	-2.264614	-0.599281
H	0.825419	-2.556198	-0.141548
H	2.477708	0.753624	1.299792
H	2.827967	-1.030878	1.033116
