19

O	3.066005	-0.900524	-0.312761
C	2.006678	-0.012579	-0.506519
C	1.887778	1.214207	0.356327
C	0.96887	0.030447	0.589288
C	-0.470258	0.063709	0.265333
C	-1.248868	1.083263	-0.092766
C	-2.649571	0.605019	-0.344074
O	-2.620022	-0.796773	-0.085834
C	-1.306835	-1.194438	0.287016
H	3.86117	-0.500824	-0.681267
H	1.635911	0.058421	-1.528996
H	2.666246	1.37587	1.093609
H	1.47589	2.116454	-0.081927
H	1.236385	-0.59426	1.438228
H	-0.954995	2.120887	-0.187735
H	-3.385262	1.091361	0.316951
H	-2.981139	0.786994	-1.379606
H	-1.322424	-1.659859	1.286335
H	-0.926404	-1.95443	-0.414461
