19

O	-2.302765	-0.765414	-0.954238
C	-1.370986	-0.110407	-0.153152
C	-1.455373	-0.394588	1.311429
C	-0.220697	-0.827336	0.534933
C	0.990406	0.09938	0.576838
C	0.398889	1.50954	0.251625
C	-0.879149	1.26566	-0.579222
C	1.991517	-0.313101	-0.4815
O	3.138407	-0.612219	-0.272487
H	-1.909779	-0.900107	-1.824368
H	-1.390843	0.412864	2.03367
H	-2.13354	-1.193786	1.587783
H	-0.070086	-1.892611	0.397639
H	1.511458	0.09148	1.539064
H	0.155683	2.013941	1.1904
H	1.119104	2.149524	-0.266149
H	-1.627976	2.051321	-0.436602
H	-0.647162	1.234864	-1.652537
H	1.58035	-0.321315	-1.520815
