19

C	-0.377267	-0.41296	1.72138
C	-0.251696	-0.449856	0.182837
C	0.838886	-1.487041	-0.227158
C	2.074816	-0.625978	-0.365054
C	1.779686	0.670549	-0.420525
C	0.291295	0.901675	-0.38108
O	-0.053887	2.048691	0.373714
C	-1.623906	-0.773195	-0.361031
O	-2.356094	0.032863	-0.882894
H	-0.78789	-1.356561	2.096667
H	0.609372	-0.26465	2.168431
H	-1.020167	0.406827	2.04613
H	0.950821	-2.29014	0.510395
H	0.598553	-1.974853	-1.182986
H	3.068716	-1.05111	-0.447056
H	2.478694	1.488461	-0.547312
H	-0.084297	1.02499	-1.409112
H	-0.970524	2.2538	0.158771
H	-1.954316	-1.828364	-0.216698
