19

C	-2.749118	-0.116151	-0.368412
C	-1.286395	-0.503803	-0.427766
C	-0.574498	-0.709922	0.901443
C	0.904704	-1.159269	0.70301
O	1.194001	-1.282745	-0.705716
C	1.210757	0.020985	-0.101184
C	2.405657	0.900442	-0.250267
C	-0.28381	0.513567	0.059166
O	-0.584161	1.827645	0.371632
H	-3.057833	0.386958	-1.291923
H	-3.380679	-1.00245	-0.249368
H	-2.951755	0.563733	0.463761
H	-1.006834	-1.149088	-1.253336
H	-1.107397	-0.7736	1.840926
H	1.51004	-1.745241	1.385058
H	2.460698	1.31957	-1.261869
H	2.349467	1.733904	0.456151
H	3.322742	0.335059	-0.065261
H	-0.780957	2.296865	-0.447405
