19

C	3.717807	-0.239711	-0.142403
C	2.309945	-0.54939	0.332679
O	1.465317	0.537475	-0.036002
C	0.155941	0.392448	0.381828
C	-0.84201	1.169351	-0.374593
C	-2.22034	1.021362	0.287692
C	-2.128032	-0.50321	-0.012843
O	-2.922333	-1.397705	0.064596
C	-0.762705	-0.372006	-0.601356
H	4.39554	-1.054742	0.12768
H	3.738946	-0.116546	-1.228852
H	4.084306	0.683536	0.314925
H	1.937413	-1.481262	-0.118084
H	2.286146	-0.682103	1.425609
H	0.037108	0.233423	1.456769
H	-0.550655	1.937232	-1.077973
H	-2.309109	1.329359	1.334098
H	-3.035031	1.467765	-0.289182
H	-0.312168	-0.947885	-1.399776
