19

C	-2.720861	-0.706856	0.309781
C	-1.593634	0.279407	0.122034
O	-0.995585	0.165303	-1.244749
C	0.273269	0.286239	-0.596326
C	0.743791	1.669439	-0.040576
C	1.160776	0.624869	0.996694
C	1.712608	-0.252901	-0.265243
O	1.998209	-1.599212	-0.155626
C	-0.214477	-0.111868	0.779815
H	-3.135027	-0.616375	1.319642
H	-3.519543	-0.513018	-0.412395
H	-2.369932	-1.73236	0.162305
H	-1.931776	1.306872	0.279712
H	1.541015	2.177902	-0.587152
H	-0.041775	2.361084	0.257929
H	1.71134	0.790964	1.923112
H	2.555714	0.205936	-0.789684
H	1.224021	-2.061851	0.185715
H	-0.223863	-1.177856	1.026746
