19

C	-2.634542	-0.717594	0.139325
C	-1.450211	0.115419	0.59336
O	-1.430325	1.435065	-0.005996
C	-0.272623	1.123004	-0.805534
C	-0.0618	-0.20765	-0.047014
O	0.075388	-1.390503	-0.788442
C	1.089009	-0.183067	0.966164
C	2.400201	-0.048381	0.343555
C	3.476011	0.087003	-0.174237
H	-3.565455	-0.259852	0.486201
H	-2.68872	-0.785985	-0.952608
H	-2.571933	-1.731201	0.547796
H	-1.440314	0.187884	1.689204
H	-0.522366	0.991632	-1.868792
H	0.518171	1.875537	-0.718715
H	-0.562958	-1.382098	-1.508522
H	0.924554	0.648507	1.661392
H	1.042851	-1.107677	1.554789
H	4.429394	0.194348	-0.628951
