19

O	1.667684	1.742458	0.328765
C	1.399811	0.589085	0.164884
C	2.222887	-0.704756	0.017778
C	0.948567	-1.380536	-0.567136
C	0.07063	-0.172693	-0.102935
C	-0.7967	-0.372263	1.162268
C	-2.220917	-0.401315	0.585266
C	-2.087909	0.584806	-0.57433
O	-0.773943	0.373041	-1.09319
H	3.102595	-0.635156	-0.625718
H	2.534799	-1.09953	0.990244
H	0.970616	-1.432428	-1.657315
H	0.677549	-2.35712	-0.162005
H	-0.527556	-1.27195	1.71962
H	-0.679843	0.488585	1.829382
H	-2.465903	-1.399634	0.208345
H	-2.983701	-0.110506	1.311364
H	-2.801234	0.416974	-1.386304
H	-2.195472	1.622805	-0.226984
