19

C	2.756265	-0.233048	-0.28442
C	1.286459	-0.587371	-0.395743
C	0.509568	-0.678884	0.914145
C	-0.987723	-1.08804	0.780824
C	-1.45212	-1.295218	-0.657104
C	-1.213718	0.08613	-0.166282
O	-2.182639	1.063722	-0.239101
C	0.294504	0.482382	-0.015403
O	0.610409	1.813312	0.222658
H	3.357059	-1.125401	-0.080669
H	3.125368	0.210678	-1.215907
H	2.930583	0.488822	0.518037
H	1.063304	-1.275318	-1.206272
H	1.032901	-0.685119	1.862051
H	-1.576882	-1.446207	1.615329
H	-0.854588	-1.78401	-1.420608
H	-2.510042	-1.537426	-0.716308
H	-1.899619	1.776265	0.348222
H	0.750354	2.245743	-0.628433
