19

C	-1.052374	1.875748	0.055335
C	-0.842124	0.360107	0.016944
C	-2.176114	-0.381319	-0.006367
C	0.272266	-0.131205	1.0375
C	0.402407	-1.612294	0.657525
O	0.338286	-1.524587	-0.796301
C	0.231403	-0.109402	-1.027266
C	1.262398	0.433836	-0.012579
O	2.27519	1.062693	-0.011369
H	-1.623827	2.206382	-0.818363
H	-1.619429	2.159083	0.948573
H	-0.112	2.434676	0.070908
H	-2.055586	-1.440744	-0.235929
H	-2.692711	-0.285806	0.954929
H	-2.828601	0.049775	-0.772982
H	0.288626	0.146229	2.089508
H	1.359047	-2.05005	0.964345
H	-0.412303	-2.243576	1.026568
H	0.201809	0.106363	-2.092752
