19

C	-1.307133	1.613959	0.004443
C	-0.472114	0.335565	-0.052348
C	-1.390013	-0.867666	-0.181782
O	-2.555651	-0.863543	0.134678
C	0.699555	0.242361	1.02706
C	1.537427	1.1499	0.070669
C	0.793465	0.303704	-0.981602
O	1.326922	-1.017313	-0.770419
C	1.324299	-1.111343	0.67725
H	-2.119242	1.475281	0.721797
H	-0.734278	2.49444	0.296253
H	-1.770638	1.816491	-0.966864
H	-0.922144	-1.774409	-0.611941
H	0.523916	0.47545	2.076537
H	1.260862	2.20086	0.090527
H	2.623872	1.037881	0.098511
H	0.763442	0.52075	-2.048616
H	0.741589	-1.980736	0.998243
H	2.349541	-1.218042	1.049352
