19

C	2.78037	-0.755771	-0.647003
C	2.038122	0.446982	-0.052794
C	0.575948	0.484363	-0.440963
C	-0.433926	1.255872	0.351793
O	-1.39674	1.958454	-0.362495
C	-0.472082	-0.262104	0.403572
O	-0.063344	-0.792752	1.638689
C	-1.541963	-0.959771	-0.253631
C	-2.43831	-1.566441	-0.77988
H	2.350451	-1.70067	-0.296641
H	2.724292	-0.756742	-1.740814
H	3.837745	-0.745878	-0.365668
H	2.119237	0.428444	1.038425
H	2.515081	1.376657	-0.387628
H	0.366223	0.464861	-1.507309
H	-0.090723	1.715335	1.280068
H	-2.252113	1.811222	0.05664
H	0.287095	-1.676403	1.477618
H	-3.225573	-2.101233	-1.250806
