19

O	-2.245736	-1.223434	-0.347543
C	-0.889333	-0.843139	-0.233487
C	-0.405207	-0.466267	1.207635
C	0.131476	0.953789	0.931394
C	-1.004943	1.552553	0.052527
C	-0.53073	0.472225	-0.963923
C	0.90836	0.773498	-0.406445
C	2.016312	-0.226443	-0.57922
O	2.499454	-0.900069	0.297579
H	-2.788924	-0.536157	0.051755
H	-0.332546	-1.691428	-0.640571
H	-1.248381	-0.458752	1.905969
H	0.360472	-1.140326	1.590799
H	0.564103	1.503481	1.766258
H	-2.030078	1.494819	0.434284
H	-0.800289	2.56941	-0.28897
H	-0.760535	0.525131	-2.02773
H	1.257246	1.729961	-0.816231
H	2.393576	-0.30541	-1.62673
