19

C	1.068984	-1.315844	1.214666
C	0.59007	-0.597901	-0.052038
O	0.348446	-1.593678	-1.026726
C	1.578934	0.47468	-0.485498
C	1.152206	1.70522	-0.208646
C	-0.221385	1.705101	0.428853
C	-0.672075	0.269381	0.190838
C	-1.969188	-0.301962	0.54392
O	-1.691719	0.095401	-0.810215
H	2.005268	-1.842947	1.008513
H	1.245717	-0.608869	2.030458
H	0.327689	-2.053969	1.533996
H	-0.372164	-1.255059	-1.577343
H	2.531163	0.209039	-0.929972
H	1.706495	2.61994	-0.386396
H	-0.171375	1.945958	1.499562
H	-0.92129	2.4119	-0.028949
H	-2.056374	-1.376488	0.696638
H	-2.71421	0.304667	1.056456
