19

C	1.073979	1.99319	-0.011997
C	0.097992	0.897357	0.386965
O	-1.111197	1.149552	-0.323956
C	-2.171143	0.295275	0.047514
C	-1.780051	-1.155367	0.023719
C	-0.50115	-1.524441	0.006467
C	0.587467	-0.522007	0.095817
C	1.934995	-0.954919	0.503464
O	1.65344	-0.684009	-0.866441
H	2.005414	1.924142	0.555523
H	1.308993	1.918539	-1.075163
H	0.620495	2.966797	0.187721
H	-0.108747	0.953863	1.471297
H	-2.562823	0.567336	1.046726
H	-2.978651	0.483448	-0.669183
H	-2.580834	-1.889553	0.010033
H	-0.207278	-2.56776	-0.06276
H	2.60696	-0.253024	0.995816
H	2.105988	-2.002661	0.751478
