19

O	2.521267	-1.439094	-0.245576
C	1.531645	-1.141722	0.369428
C	0.230021	-0.678588	-0.244441
C	-0.937987	-1.64473	0.051092
C	-2.183958	-0.798534	-0.248147
C	-1.821592	0.626185	0.234613
C	-0.26421	0.67222	0.349759
C	0.325032	1.857784	-0.382166
O	1.038455	2.692238	0.107997
H	1.502036	-1.207926	1.483767
H	0.37962	-0.593535	-1.327056
H	-0.879031	-2.56202	-0.540371
H	-0.915329	-1.931844	1.11063
H	-2.372353	-0.795344	-1.32705
H	-3.084571	-1.188043	0.233654
H	-2.19176	1.388027	-0.459751
H	-2.265799	0.850749	1.207369
H	0.044095	0.750318	1.397367
H	0.031612	1.908782	-1.458756
