19

C	-2.625194	-1.521637	-0.053673
C	-1.509326	-0.545926	-0.345823
C	-0.134415	-0.746874	0.187471
C	1.105694	-0.474061	-0.642914
C	2.309801	-0.152235	0.215954
O	3.371784	-0.715601	0.152984
C	-1.012175	0.392613	0.752537
C	-0.741958	1.806005	0.412645
O	-0.390545	2.207074	-0.675888
H	-2.619693	-2.345193	-0.775771
H	-2.521672	-1.955364	0.946262
H	-3.603443	-1.033304	-0.109298
H	-1.552484	-0.056722	-1.316093
H	-0.026857	-1.569772	0.891271
H	1.347324	-1.33894	-1.268377
H	0.919809	0.391137	-1.290479
H	2.144391	0.676527	0.943515
H	-1.400874	0.232299	1.753247
H	-0.890986	2.52023	1.251772
