19

C	-2.233508	1.255032	-0.281235
C	-1.642856	0.024759	0.424265
O	-2.381057	-1.150583	0.115895
C	-0.185255	-0.149962	0.133862
C	0.499664	-1.194243	-0.342929
C	1.930672	-0.631197	-0.390477
C	2.050569	0.037323	1.012388
C	0.953172	0.887571	0.306137
O	1.70454	0.71403	-0.939396
H	-2.110556	1.169847	-1.366738
H	-3.299531	1.33225	-0.052483
H	-1.739791	2.177675	0.038832
H	-1.777876	0.155073	1.507707
H	-2.28765	-1.30291	-0.83172
H	0.170296	-2.187809	-0.606157
H	2.729675	-1.191593	-0.873476
H	1.7822	-0.544107	1.896806
H	2.986184	0.586227	1.142978
H	0.724428	1.922067	0.5602
