19

C	1.081757	2.546125	0.105172
C	0.725228	1.094755	0.029617
C	1.416275	0.114582	-0.571681
C	0.777622	-1.246048	-0.402854
O	1.584699	-2.149988	0.350331
C	-0.552926	-0.92035	0.281825
C	-1.511157	0.005639	-0.418258
O	-2.854565	-0.017588	-0.037662
C	-0.549773	0.568738	0.603867
H	1.132235	2.883098	1.148104
H	2.045949	2.751445	-0.366823
H	0.31885	3.164346	-0.383655
H	2.347966	0.244948	-1.111226
H	0.623301	-1.757708	-1.360616
H	1.876547	-1.671982	1.135009
H	-0.969491	-1.644997	0.97192
H	-1.325576	0.256581	-1.464178
H	-3.239399	-0.843378	-0.350463
H	-0.973606	0.977611	1.514452
