19

O	2.238033	0.087304	-0.91923
C	1.130076	0.078267	-0.059903
C	1.183172	-0.776503	1.176891
C	0.344299	-1.19841	-0.026247
C	-1.145956	-1.10028	0.053167
C	-1.876943	-0.317291	-1.036264
C	-1.705052	0.264444	0.341354
O	-0.858351	1.340635	0.647139
C	0.361493	1.392407	-0.065764
H	2.94206	0.586551	-0.489811
H	2.104219	-1.32006	1.35636
H	0.659648	-0.433526	2.062885
H	0.752364	-2.005053	-0.628621
H	-1.655248	-1.955824	0.488558
H	-1.273227	0.060687	-1.853193
H	-2.874573	-0.628249	-1.326861
H	-2.5887	0.341271	0.964889
H	0.201759	1.690931	-1.112983
H	0.947706	2.183954	0.416096
