19

C	-2.682641	-1.919054	0.152993
O	-1.820291	-0.968426	-0.428152
C	-1.719298	0.214685	0.322896
C	-0.696901	1.13763	-0.358026
C	-0.665987	2.522981	0.320532
C	0.631722	0.533449	-0.356752
C	1.740661	0.055534	-0.311729
C	3.061242	-0.514802	-0.309922
O	3.601346	-1.000588	0.658334
H	-3.710533	-1.534304	0.246768
H	-2.691062	-2.793215	-0.501823
H	-2.336571	-2.224942	1.152267
H	-2.692334	0.732909	0.372944
H	-1.400603	0.002479	1.356727
H	-1.02224	1.259777	-1.399225
H	-1.654918	2.987963	0.269527
H	-0.375268	2.435303	1.371276
H	0.051042	3.180873	-0.175288
H	3.571256	-0.477272	-1.294581
