19

O	-2.285963	-1.206585	0.696207
C	-1.572191	-0.66195	-0.418953
C	-1.737746	0.860283	-0.545823
C	-0.776464	1.612756	0.382332
C	0.679183	1.278501	0.035416
C	0.884462	-0.20693	-0.122425
C	2.260203	-0.738455	-0.032561
O	3.24287	-0.05997	0.162631
C	-0.123338	-1.067461	-0.336552
H	-1.832688	-0.925874	1.498762
H	-2.032804	-1.147496	-1.287198
H	-1.538054	1.15136	-1.585527
H	-2.781228	1.110269	-0.332702
H	-0.94424	2.691989	0.317621
H	-0.977202	1.333051	1.425845
H	0.969631	1.779591	-0.898792
H	1.374974	1.654726	0.791794
H	2.336748	-1.841907	-0.16009
H	0.084958	-2.133732	-0.409019
