19

O	-0.964092	1.935355	-0.40413
C	-0.354638	0.967112	0.416225
C	-1.362448	0.100043	1.228782
C	-1.269209	-0.972319	0.121156
O	-2.324314	-0.72821	-0.804498
C	0.073638	-0.330788	-0.345496
C	1.323532	-1.02952	0.212977
C	2.549812	-0.282237	-0.040625
C	3.544708	0.354674	-0.262023
H	-1.688506	1.490341	-0.863197
H	0.433597	1.478762	0.97317
H	-0.95516	-0.249448	2.180657
H	-2.352601	0.529943	1.392834
H	-1.245509	-2.028062	0.424004
H	-2.132964	-1.217891	-1.612091
H	0.170493	-0.197267	-1.427634
H	1.212601	-1.185499	1.294486
H	1.405638	-2.032917	-0.22604
H	4.427289	0.913094	-0.453134
