19

O	3.097465	-0.783236	0.064887
C	1.96597	-0.044831	0.419404
C	1.702358	1.18306	-0.38676
C	0.769477	-0.009057	-0.514243
C	-0.618272	-0.014524	0.009043
C	-1.28207	1.085716	0.820875
C	-1.91802	0.621141	-0.451843
O	-2.679991	-0.566741	-0.233257
C	-1.474843	-1.27684	0.157076
H	2.914228	-1.712205	0.240508
H	1.75678	0.006881	1.487999
H	1.360083	2.07301	0.128367
H	2.37146	1.365347	-1.219624
H	0.913356	-0.587409	-1.424571
H	-1.765177	0.86523	1.76967
H	-0.792663	2.053096	0.767177
H	-2.176427	1.247342	-1.298035
H	-1.557121	-1.727321	1.154061
H	-1.231901	-2.052153	-0.579899
