19

O	2.127761	-0.345456	1.244365
C	1.926642	-0.09933	-0.144212
C	1.030928	-1.167446	-0.788435
C	-0.385285	-1.141239	-0.19459
C	-0.920376	0.264595	-0.073894
C	-2.365462	0.448023	0.153827
O	-3.163374	-0.457136	0.248927
C	-0.139457	1.353639	-0.163268
C	1.344828	1.304956	-0.384443
H	1.285508	-0.225064	1.696056
H	2.929998	-0.149702	-0.578291
H	0.981907	-0.979026	-1.868225
H	1.482357	-2.153962	-0.649573
H	-1.078997	-1.738115	-0.79447
H	-0.394231	-1.618044	0.795357
H	-2.687406	1.511459	0.234609
H	-0.601208	2.336767	-0.077251
H	1.564321	1.637777	-1.409671
H	1.851746	2.019455	0.275214
