19

C	3.890241	-0.598029	0.000608
C	2.415209	-0.991623	-0.000477
C	1.488596	0.207213	-0.000158
O	1.831569	1.363479	0.00021
O	0.197407	-0.187138	-0.000402
C	-0.766312	0.891005	-0.000243
C	-2.104471	0.328623	-5.1e-05
C	-3.226946	-0.104269	0.000155
C	-4.581972	-0.634229	0.00032
H	4.135232	0.000178	0.881801
H	4.523422	-1.48949	7.1e-05
H	4.136055	0.001862	-0.879204
H	2.162269	-1.605874	-0.872717
H	2.161276	-1.607211	0.870518
H	-0.593483	1.521021	0.879243
H	-0.593751	1.521029	-0.87978
H	-5.133338	-0.320155	0.893163
H	-5.143201	-0.294713	-0.876933
H	-4.572361	-1.729525	-0.015558
