19

C	-2.262596	-1.457049	-0.403028
C	-1.50433	-0.278416	0.130945
C	-0.588859	-0.32284	1.344541
C	-0.054296	0.154639	0.024493
C	1.156527	-0.35584	-0.701388
C	2.443251	0.200976	-0.113581
O	3.405099	-0.466827	0.164951
O	-0.402239	1.534639	-0.164747
C	-1.814629	1.189508	-0.157213
H	-2.502905	-1.332128	-1.464777
H	-1.683515	-2.379946	-0.297014
H	-3.205479	-1.600923	0.138081
H	-0.705119	0.382966	2.163229
H	-0.286983	-1.323792	1.639634
H	1.204933	-1.447701	-0.671
H	1.101017	-0.036903	-1.751823
H	2.437114	1.301638	0.044176
H	-2.377972	1.751701	0.597132
H	-2.254374	1.356716	-1.147876
