19

C	-3.986548	-0.852462	0.078177
C	-2.632957	-0.319064	0.113444
C	-1.510005	0.112482	0.14452
C	-0.169248	0.680811	0.191163
C	-0.042187	1.978554	-0.610679
O	0.747384	-0.313456	-0.350843
C	1.996564	-0.31885	0.162381
C	2.823022	-1.408144	-0.478462
O	2.383692	0.443067	1.013305
H	-4.006046	-1.839	-0.397689
H	-4.398856	-0.962326	1.08707
H	-4.658144	-0.198189	-0.488245
H	0.132602	0.866324	1.226428
H	-0.264742	1.796496	-1.664984
H	-0.747501	2.72108	-0.228165
H	0.971647	2.373691	-0.51325
H	3.828941	-1.393535	-0.060864
H	2.357635	-2.381939	-0.302187
H	2.864003	-1.259449	-1.561077
