19
../xyz/dsC7O2H10nsd_4077.xyz
C         -2.92779       -0.28824        0.10577
C         -1.50636       -0.13861       -0.39411
O         -1.04398        1.23984       -0.32642
C          0.08394        0.88124        0.49773
C          1.39555        0.85816       -0.25962
C          2.54275        0.11941        0.40593
C          1.65810       -0.57997       -0.59135
O          0.64941       -1.41112       -0.05384
C         -0.35331       -0.60094        0.53534
H         -3.61266        0.30271       -0.51001
H         -3.24012       -1.33723        0.05802
H         -3.01768        0.05697        1.14082
H         -1.39862       -0.53967       -1.40996
H          0.10761        1.46446        1.42474
H          1.59664        1.66699       -0.95188
H          3.54927        0.39109        0.10610
H          2.44114       -0.17120        1.44715
H          2.03533       -0.92712       -1.54605
H         -0.66154       -1.04309        1.48504
