19

O	-2.743236	-0.706179	-0.531969
C	-2.045178	0.250371	-0.293759
C	-0.655601	0.176414	0.204192
C	-0.187612	1.313717	1.0986
C	0.308803	1.259537	-0.30791
C	1.752959	0.862112	-0.607923
C	1.963955	-0.655183	-0.521788
O	1.30969	-1.209458	0.606752
C	-0.096117	-1.217973	0.432667
H	-2.422692	1.290622	-0.442098
H	-0.909502	2.076815	1.370856
H	0.502316	1.028365	1.885579
H	-0.128902	1.982523	-0.990215
H	2.032011	1.203815	-1.610046
H	2.423158	1.366795	0.096725
H	1.594272	-1.142118	-1.438989
H	3.025701	-0.895036	-0.417801
H	-0.376813	-1.859843	-0.415987
H	-0.518442	-1.660818	1.33924
