19

O	-2.72104	-7e-06	-0.485964
C	-1.646046	0.0	0.070684
C	-0.95799	1.318121	0.422608
C	0.392162	1.527236	-0.305718
C	1.517975	0.735171	0.327415
O	2.398245	6e-06	-0.527811
C	1.517981	-0.735173	0.327403
C	0.392163	-1.52724	-0.305722
C	-0.957981	-1.318113	0.422619
H	-1.659248	2.112862	0.158448
H	-0.79234	1.360939	1.507635
H	0.301518	1.251878	-1.360656
H	0.641063	2.592981	-0.282845
H	2.025373	1.234843	1.154639
H	2.025384	-1.234851	1.154621
H	0.301512	-1.251893	-1.360662
H	0.641059	-2.592986	-0.282838
H	-1.659241	-2.11286	0.158484
H	-0.792309	-1.360914	1.507644
