19

C	2.509753	0.716106	0.298313
C	1.710726	-0.112364	-0.719967
C	0.358994	-0.483045	-0.196908
O	0.285818	-1.478493	0.847456
C	-0.508775	-1.676452	-0.3237
C	-1.798382	-0.86531	-0.113068
C	-0.88391	0.382661	-0.031328
C	-1.139016	1.727787	-0.545906
O	-1.012783	1.46893	0.861812
H	1.965403	1.621091	0.584247
H	2.684054	0.134953	1.208049
H	3.479104	1.011586	-0.112976
H	1.587628	0.45038	-1.653556
H	2.25389	-1.030561	-0.968846
H	-0.357893	-2.585915	-0.893037
H	-2.476585	-0.846743	-0.969859
H	-2.344217	-1.118014	0.798015
H	-0.33191	2.312651	-0.98527
H	-2.140091	1.990783	-0.885528
