19

C	2.431283	-1.124263	-0.412522
C	1.561756	-0.60691	0.738096
C	0.441454	0.27589	0.278804
C	-0.565256	1.119101	1.110216
C	-0.689544	1.513924	-0.372813
O	0.776195	1.527256	-0.479969
C	-0.659564	0.001654	-0.792155
C	-1.820504	-0.914754	-0.537939
O	-2.014343	-1.531103	0.482608
H	1.853006	-1.757108	-1.093528
H	2.839615	-0.291852	-0.992063
H	3.264939	-1.720158	-0.03101
H	1.115998	-1.439831	1.294727
H	2.171551	-0.037005	1.449493
H	-1.389994	0.596313	1.593532
H	-0.102021	1.881456	1.737588
H	-1.238201	2.328915	-0.844382
H	-0.27936	-0.11557	-1.811094
H	-2.5281	-1.002234	-1.394496
