19
../xyz/dsC7O2H10nsd_5132.xyz
O         -2.48902       -0.08362        0.27291
C         -1.50153       -0.64348       -0.60340
C         -0.15924       -0.47677        0.05092
C          0.48842       -1.59640        0.81702
C          1.08722       -1.14093       -0.50545
C          2.15560       -0.10595       -0.40849
C          1.70837        1.02768        0.13713
C          0.23676        0.95696        0.47163
O         -0.48098        1.96126       -0.23138
H         -3.34329       -0.13700       -0.16706
H         -1.70283       -1.70761       -0.79509
H         -1.50989       -0.11357       -1.56566
H          1.03753       -1.36258        1.72412
H         -0.03015       -2.55090        0.83372
H          1.05597       -1.82037       -1.35148
H          3.17963       -0.29436       -0.71170
H          2.30109        1.90673        0.36023
H          0.08288        1.08567        1.55534
H         -1.40461        1.84620        0.02917
