19
../xyz/dsC7O2H10nsd_1679.xyz
O          1.59476        1.14459        0.75853
C          0.64191        0.36994        0.09108
C         -0.21550        1.17453       -0.95461
C         -1.50884        0.85213       -0.17595
C         -2.18163       -0.51204       -0.51726
C         -1.47943       -1.16672        0.71125
C         -0.66942        0.13482        0.93725
C          1.30697       -0.85729       -0.48118
O          2.48447       -1.08101       -0.31925
H          2.42869        0.65119        0.69046
H          0.07753        2.22458       -0.89420
H         -0.17048        0.85135       -1.99992
H         -2.18314        1.68303        0.03067
H         -3.27256       -0.51319       -0.46891
H         -1.89088       -0.91898       -1.49107
H         -2.17917       -1.33513        1.53384
H         -0.92959       -2.09836        0.55270
H         -0.55192        0.50996        1.95364
H          0.67331       -1.53533       -1.08492
