19
../xyz/dsC7O2H10nsd_5609.xyz
C         -2.04062       -1.10191        0.93003
O         -1.89877       -0.82458       -0.45224
C         -0.68371       -0.21688       -0.82449
C          0.58777       -0.97899       -0.54393
C          1.55986       -0.21927       -0.02549
C          2.94983       -0.64865        0.31857
C          1.10497        1.20871        0.17612
C         -0.39465        1.14895       -0.13699
O         -1.21872        1.97583        0.14433
H         -2.06686       -0.18368        1.53066
H         -2.99341       -1.62356        1.04335
H         -1.23497       -1.74858        1.30481
H         -0.79896       -0.02835       -1.90237
H          0.68876       -2.03141       -0.78685
H          3.69326       -0.08839       -0.26255
H          3.17051       -0.45160        1.37540
H          3.10034       -1.71467        0.12853
H          1.28469        1.60019        1.18499
H          1.59588        1.90825       -0.51561
