19

C	-2.044375	0.591707	-0.10097
C	-1.806067	-0.948524	0.143242
C	-0.30627	-0.632817	0.10028
C	0.389855	-0.042835	1.348203
C	1.348536	0.714811	0.424836
C	1.842672	-0.463451	-0.465404
O	0.732539	-1.406614	-0.482269
O	0.442734	1.559263	-0.324276
C	-0.594899	0.64025	-0.682846
H	-2.852837	0.862721	-0.780801
H	-2.15187	1.151768	0.828932
H	-2.209193	-1.397957	1.052142
H	-2.120216	-1.537609	-0.721759
H	-0.210521	0.627318	1.962901
H	0.847047	-0.827121	1.954599
H	2.136076	1.337202	0.847531
H	2.068422	-0.122802	-1.482021
H	2.72369	-0.960601	-0.045673
H	-0.609492	0.491045	-1.767538
