19
../xyz/dsC7O2H10nsd_4971.xyz
C         -1.75214        1.78115        0.22831
C         -1.09113        0.45359        0.00643
C         -1.46614       -0.64140       -0.99734
C         -0.12420       -1.29992       -0.59503
O         -0.34388       -1.70345        0.78830
C         -0.33057       -0.31391        1.10538
C          0.40202        0.11565       -0.13133
C          1.63471        0.91379       -0.38552
O          2.82627        0.22706       -0.02713
H         -1.20615        2.38339        0.96289
H         -1.81097        2.36392       -0.69786
H         -2.77324        1.64971        0.60464
H         -2.36976       -1.23562       -0.82512
H         -1.44421       -0.26288       -2.02330
H          0.38620       -2.05121       -1.19319
H         -0.27194       -0.00528        2.14233
H          1.73973        1.14090       -1.45286
H          1.55005        1.88055        0.13907
H          2.70586       -0.10607        0.86859
