19

C	2.24076	0.226318	-0.47271
O	2.033654	-0.614517	0.633146
C	0.802853	-0.166652	1.178938
C	-0.037347	0.141131	-0.074478
C	-1.103953	1.243438	0.134772
C	-2.391254	0.465899	0.254062
C	-2.244474	-0.804301	-0.122549
C	-0.835021	-1.098701	-0.567062
O	0.969286	0.533694	-1.01695
H	2.743931	1.162058	-0.169467
H	2.853575	-0.306351	-1.208082
H	0.389224	-0.956828	1.807557
H	0.94944	0.742253	1.784569
H	-0.887318	1.869826	1.008506
H	-1.115633	1.913838	-0.734349
H	-3.320027	0.922273	0.577495
H	-3.036267	-1.54464	-0.150322
H	-0.425424	-2.035048	-0.170783
H	-0.764398	-1.163592	-1.660519
