19

C	0.407233	2.093207	0.454567
C	0.058554	0.712241	-0.059346
O	-1.224879	0.780713	-0.675003
C	-1.862132	-0.458799	-0.480058
O	-1.42175	-0.952944	0.765684
C	-0.075641	-0.547157	0.892089
C	0.92509	-1.300116	0.006291
C	2.217874	-0.539646	-0.033713
C	1.081677	-0.072923	-0.900234
H	1.39478	2.106807	0.922337
H	0.41082	2.811036	-0.371902
H	-0.334041	2.423619	1.187836
H	-2.944045	-0.304628	-0.440558
H	-1.607373	-1.163033	-1.289704
H	0.153512	-0.462613	1.957415
H	0.852327	-2.348638	-0.254606
H	2.543363	0.042498	0.825899
H	3.03026	-1.030078	-0.560131
H	1.157496	-0.017969	-1.97961
