19

C	2.875954	-0.299163	-0.154801
C	1.430668	-0.062052	0.282573
O	0.888281	0.910405	-0.601672
C	-0.142219	1.728651	-0.088298
C	-1.253942	0.968513	0.657343
C	-1.663094	-0.342331	-0.004564
O	-2.76323	-0.499243	-0.49382
C	-0.690039	-1.463963	0.062838
C	0.630278	-1.350756	0.242691
H	3.361223	-1.036334	0.491701
H	2.901444	-0.666418	-1.184945
H	3.438207	0.635953	-0.107752
H	1.440527	0.33305	1.313453
H	0.271159	2.498636	0.583179
H	-0.562284	2.236352	-0.961529
H	-0.918132	0.738126	1.675746
H	-2.139363	1.605004	0.730946
H	-1.140664	-2.44454	-0.063672
H	1.221846	-2.262525	0.300104
