19
../xyz/dsC7O2H10nsd_2549.xyz
C         -2.60775        0.18234       -0.40987
C         -1.23962       -0.29275       -0.05748
C         -0.48859       -1.26149       -0.57899
C          0.87473       -1.20744        0.09645
C          1.82230       -0.23390       -0.63280
C          1.10149        1.12390       -0.79999
O          0.34060        1.51355        0.34979
C         -0.34459        0.42756        0.95798
O          0.57550       -0.56459        1.34805
H         -3.04678       -0.40689       -1.21922
H         -3.28156        0.13164        0.45470
H         -2.58097        1.23323       -0.72348
H         -0.73746       -1.92029       -1.40162
H          1.33478       -2.17765        0.29824
H          2.72267       -0.12252       -0.02104
H          2.12319       -0.60648       -1.61871
H          1.82100        1.93006       -0.96536
H          0.44487        1.07714       -1.67889
H         -0.83636        0.84080        1.84081
