19

C	-1.334952	0.649758	-0.925262
O	-1.25159	-0.767423	-0.871175
C	-0.690997	-1.139284	0.378063
C	0.747693	-1.625057	0.208344
C	1.749812	-0.640152	-0.338093
C	1.744443	0.693879	-0.31356
C	0.728065	1.641505	0.273385
C	-0.708775	1.132847	0.399783
O	-0.802703	-0.022117	1.230675
H	-0.791692	1.02232	-1.800961
H	-2.387099	0.9495	-1.006762
H	-1.301262	-1.942963	0.809795
H	1.096808	-1.993234	1.18461
H	0.714502	-2.504309	-0.446834
H	2.621912	-1.113109	-0.786397
H	2.61299	1.192158	-0.740662
H	1.068404	1.952999	1.271743
H	0.705947	2.561385	-0.326796
H	-1.317893	1.910604	0.870288
