19
../xyz/dsC7O2H10nsd_0377.xyz
C          2.00634       -0.63380       -0.72405
C          2.31317        0.23905        0.47244
C          0.90313        0.10312       -0.02717
C          0.09460        1.26475       -0.63659
C         -1.30492        0.92983       -0.07079
C         -1.82632       -0.36103       -0.73640
O         -1.00515       -1.36468       -0.11600
C         -0.17066       -0.62731        0.77676
O         -0.99285        0.42672        1.24200
H          2.31465       -0.28568       -1.70454
H          2.05423       -1.71118       -0.60225
H          2.58012       -0.24458        1.40720
H          2.82126        1.18298        0.30151
H          0.43470        2.23599       -0.26662
H          0.11234        1.28240       -1.73000
H         -2.01511        1.75227       -0.00445
H         -2.87935       -0.55337       -0.50221
H         -1.68808       -0.36976       -1.82323
H          0.15727       -1.27308        1.59135
