19

O	-1.591111	1.617636	0.014681
C	-0.301192	1.071805	0.009866
C	-0.009606	-0.060068	-1.031679
C	1.453332	-0.448365	-0.768242
C	2.369654	0.465965	0.005614
C	1.453215	-0.46047	0.766607
C	-0.008555	-0.075611	1.034526
C	-0.6958	-1.037342	-0.015173
O	-2.115096	-1.014807	-0.095599
H	-2.212137	0.877556	-0.042318
H	0.371086	1.928261	0.018089
H	-0.352242	0.017738	-2.063638
H	1.882654	-1.256488	-1.349643
H	3.411411	0.160059	0.002723
H	2.247562	1.541735	0.014423
H	1.884262	-1.27792	1.333854
H	-0.349045	-0.009102	2.069299
H	-0.333288	-2.073341	-0.023333
H	-2.466894	-1.466614	0.678772
