19

C	-2.510484	0.149542	0.379798
C	-1.050309	-0.142041	0.155699
C	0.010369	-0.376879	1.296255
C	1.044305	-0.098368	0.159841
C	2.505202	0.176115	0.339642
O	0.807755	-1.200215	-0.741574
C	-0.638421	-1.280376	-0.795309
C	-0.023347	0.919545	-0.31471
O	-0.065202	2.059007	-0.670331
H	-3.008533	0.383693	-0.567065
H	-3.026304	-0.706815	0.827441
H	-2.640342	1.009845	1.043049
H	-0.012712	0.389714	2.07383
H	0.049806	-1.382671	1.721301
H	2.966768	0.402367	-0.625708
H	2.652045	1.033348	1.002061
H	3.014121	-0.692363	0.768342
H	-0.98929	-1.124149	-1.822803
H	-0.969865	-2.268531	-0.452505
