19

C	2.249206	-1.351494	-0.326773
C	1.445231	-0.099539	-0.029201
C	1.691765	1.046832	-0.989019
C	1.115048	0.199508	1.391372
C	0.010176	-0.361935	0.503744
C	-1.11593	0.505398	0.129935
O	-1.118868	1.722338	0.113893
C	-2.420183	-0.198056	-0.27835
O	-2.57549	-1.390692	-0.28593
H	3.322303	-1.131086	-0.286445
H	2.042853	-2.147435	0.3947
H	2.026365	-1.735015	-1.328299
H	1.512151	0.737714	-2.024917
H	1.054408	1.904576	-0.770642
H	2.737404	1.367432	-0.917357
H	1.490491	-0.452985	2.172541
H	0.989767	1.239771	1.673927
H	-0.258464	-1.405464	0.614246
H	-3.214288	0.525037	-0.561706
