19
../xyz/dsC7O2H10nsd_3239.xyz
C         -1.51715        1.72223        0.05931
C         -0.44629        0.83064       -0.55840
C          1.00621        1.02543       -0.07363
O          1.73171        0.11977       -0.96085
C          1.12188       -0.92384       -0.20356
C          1.02826       -0.09444        1.07256
O         -0.30563       -0.49958        1.35946
C         -0.46064       -0.65208       -0.09467
C         -1.53584       -1.60880       -0.51389
H         -1.53172        1.62262        1.14653
H         -1.33608        2.77229       -0.19284
H         -2.51171        1.46226       -0.31841
H         -0.44851        0.90409       -1.65017
H          1.44358        2.01951        0.00294
H          1.51884       -1.92822       -0.34375
H          1.71631       -0.04766        1.91414
H         -1.37414       -2.59563       -0.07074
H         -2.52249       -1.25272       -0.19934
H         -1.54127       -1.71280       -1.60353
