19

C	1.454312	-0.920464	-1.116679
C	0.661913	-0.417513	0.095861
C	1.501323	-0.504148	1.386319
C	-0.67282	-1.118337	0.276419
O	-1.581331	-0.906441	-0.81121
C	-1.771848	-0.143309	0.388848
C	-1.232984	1.2606	0.271251
C	0.244099	1.062334	-0.110617
O	0.984542	1.929285	-0.492549
H	0.817114	-0.954478	-2.004119
H	2.290879	-0.245688	-1.316943
H	1.849711	-1.925161	-0.934903
H	0.947806	-0.142975	2.259977
H	1.796211	-1.540787	1.580496
H	2.407753	0.098557	1.285143
H	-0.716046	-2.103137	0.736824
H	-2.68699	-0.352055	0.935947
H	-1.743164	1.864802	-0.48396
H	-1.292934	1.803183	1.223192
