19

O	-2.884531	0.425352	-0.087157
C	-1.876098	-0.536159	0.197646
C	-0.572593	-0.259136	-0.546714
C	0.070266	1.082641	-0.206598
C	1.577708	0.924483	-0.430135
C	1.804319	-0.50963	-0.896183
C	0.638231	-1.11072	-0.079578
O	0.889264	-0.61557	1.246869
C	0.988152	0.767574	0.951647
H	-3.094854	0.361757	-1.024325
H	-1.700016	-0.477603	1.274659
H	-2.226661	-1.556633	-0.026665
H	-0.726091	-0.379925	-1.627196
H	-0.451752	2.023402	-0.304826
H	2.219569	1.750912	-0.703023
H	1.680316	-0.650512	-1.973464
H	2.772403	-0.911451	-0.584251
H	0.528605	-2.1933	-0.054422
H	1.180706	1.40079	1.805307
