19

C	-3.796594	-0.485106	0.120106
C	-2.375176	-0.180318	0.042511
C	-1.197795	0.069689	-0.012444
C	0.223345	0.404515	-0.100799
O	0.401145	1.805321	-0.325708
C	0.997705	-0.441561	-1.168089
C	2.208974	-0.999709	-0.390101
O	2.329877	-0.196756	0.774137
C	1.009295	0.074356	1.192181
H	-4.021883	-1.097864	0.999837
H	-4.393654	0.430439	0.193817
H	-4.137714	-1.03473	-0.764072
H	-0.166604	2.052501	-1.063514
H	0.378613	-1.232577	-1.594269
H	1.309289	0.23091	-1.970151
H	2.0362	-2.0525	-0.11298
H	3.151257	-0.939112	-0.939621
H	0.558366	-0.800238	1.686484
H	1.019425	0.92346	1.876856
