19
../xyz/dsC7O2H10nsd_5128.xyz
C          2.93149       -0.88012        0.03898
C          1.59228       -0.22787       -0.08271
C          1.29264        0.89597       -0.74790
C         -0.13715        1.26276       -0.54647
O         -0.48381        1.52008        0.84041
C         -0.73483        0.21631        0.30940
C         -2.18287       -0.20832        0.26080
O         -2.39771       -1.28811       -0.63653
C          0.36529       -0.79764        0.61204
H          3.27002       -0.89369        1.08279
H          2.89366       -1.92673       -0.28885
H          3.68813       -0.36072       -0.55507
H          1.98978        1.49270       -1.32397
H         -0.69939        1.85105       -1.26693
H         -2.50020       -0.57466        1.24362
H         -2.80177        0.66804        0.02080
H         -2.16567       -0.98241       -1.51980
H          0.52204       -0.91009        1.69200
H          0.09438       -1.78587        0.21955
