19
../xyz/dsC7O2H10nsd_4040.xyz
C         -2.64519       -0.15729       -0.33809
C         -1.19638       -0.60493       -0.25856
O         -0.77970       -0.63051        1.12483
C          0.60571       -0.36901        1.13319
C          1.10130        1.01371        0.68579
C          0.02102        1.64790       -0.18723
C         -0.13574        0.27680       -0.92926
C          1.17835       -0.19961       -0.22788
O          2.27892       -0.80786       -0.79157
H         -2.99866       -0.20368       -1.37310
H         -3.27608       -0.81364        0.26797
H         -2.76912        0.86545        0.02712
H         -1.11465       -1.62731       -0.67074
H          1.15410       -0.87244        1.92075
H          1.89483        1.52143        1.22210
H         -0.86368        2.04038        0.32184
H          0.42990        2.41732       -0.84587
H         -0.16478        0.29565       -2.01808
H          2.13997       -1.76151       -0.78580
