19

O	2.285344	-0.120231	-0.501051
C	0.958359	0.14596	-0.173151
C	0.330672	1.542878	-0.301352
C	-0.749691	1.012037	0.685514
O	-1.829297	0.395678	0.000964
C	-1.346894	-0.455148	-1.04268
C	0.004762	-1.027794	-0.625369
C	-0.102792	-1.489233	0.858156
C	0.287727	-0.054343	1.231748
H	2.839857	0.548236	-0.083815
H	0.96715	2.290294	0.187055
H	0.003518	1.927595	-1.271696
H	-1.184855	1.707223	1.402886
H	-2.093606	-1.245014	-1.176656
H	-1.267995	0.100118	-1.989052
H	0.420868	-1.711863	-1.366693
H	-1.073543	-1.866755	1.190589
H	0.684049	-2.196973	1.129009
H	0.76332	0.197424	2.181878
