19
../xyz/dsC7O2H10nsd_5981.xyz
O         -3.33476        0.13508       -0.00003
C         -2.00084       -0.35565       -0.00008
C         -1.07906        0.86198        0.00009
C          0.38631        0.52341        0.00002
C          1.60725        1.47541       -0.00005
C          2.26694        0.08167       -0.00004
C          1.14341       -0.52728        0.88946
O          0.87475       -1.65451        0.00004
C          1.14335       -0.52732       -0.88944
H         -3.92985       -0.62009        0.00026
H         -1.80223       -0.97964        0.88346
H         -1.80223       -0.97938       -0.88382
H         -1.31518        1.47695       -0.87757
H         -1.31515        1.47668        0.87794
H          1.74909        2.08459       -0.89764
H          1.74916        2.08462        0.89752
H          3.31909       -0.20016       -0.00007
H          1.11167       -0.69062        1.96703
H          1.11153       -0.69070       -1.96700
