19

C	2.630994	-0.10933	0.635657
C	1.486128	-0.264431	-0.367485
O	0.912055	-1.562274	-0.241715
C	-0.50602	-1.474803	-0.125295
C	-0.799981	6.2e-05	-0.036748
C	-2.155793	0.505824	0.151781
O	-3.127604	-0.214085	0.255796
C	0.337247	0.70197	-0.179483
C	0.553645	2.17909	-0.198352
H	3.154084	0.841694	0.493825
H	2.253626	-0.159732	1.661342
H	3.350467	-0.919565	0.492547
H	1.898313	-0.141011	-1.386601
H	-0.997146	-1.934345	-0.995977
H	-0.841506	-2.025814	0.762861
H	-2.261133	1.610791	0.197667
H	1.065992	2.477899	-1.121373
H	-0.377404	2.743546	-0.128024
H	1.201786	2.487114	0.630634
