19
../xyz/dsC7O2H10nsd_1859.xyz
C          2.39034        0.04758       -0.53997
C          1.05504       -0.27289        0.08321
C          0.63474        0.30856        1.40142
C         -0.12435        0.68182        0.13306
C         -0.18178        2.09702       -0.38107
C         -1.34202       -0.17215       -0.06238
O         -2.47991        0.18182       -0.18197
O         -0.98238       -1.49145       -0.09189
C          0.44121       -1.63759       -0.20305
H          3.17137       -0.61907       -0.15656
H          2.35985       -0.06525       -1.62936
H          2.69743        1.07293       -0.31618
H          0.15221       -0.32411        2.14049
H          1.25840        1.09342        1.81747
H         -1.03022        2.62106        0.06830
H          0.73077        2.64731       -0.13678
H         -0.31627        2.12235       -1.46715
H          0.75790       -2.41175        0.50353
H          0.67778       -1.97396       -1.22021
