19

C	2.136443	-0.835927	-0.016859
C	0.690128	-0.407048	-0.064097
O	-0.126794	-1.538134	-0.312471
C	-1.437611	-1.233135	0.185516
C	-1.356097	0.266396	0.437246
O	-1.126023	0.847709	-0.87212
C	0.309297	0.891385	-0.884004
C	0.611514	1.71526	0.388978
C	0.04637	0.449973	1.076197
H	2.403182	-1.332205	-0.955138
H	2.811593	0.011507	0.122412
H	2.295696	-1.549045	0.797413
H	-2.18407	-1.47177	-0.577759
H	-1.648222	-1.815652	1.095499
H	-2.21618	0.730262	0.922005
H	0.673736	1.129386	-1.882515
H	1.671631	1.869975	0.592571
H	0.056687	2.649319	0.489119
H	0.158218	0.220204	2.135254
