19

O	-3.522677	0.186095	0.234995
C	-2.411726	0.425369	-0.159822
C	-1.262381	-0.559341	-0.111287
C	-0.258462	-0.323607	1.047891
C	0.767955	-0.08828	-0.082586
C	1.635647	1.18671	-0.11002
C	2.850345	0.311572	0.308895
C	2.054192	-0.938798	-0.158984
O	-0.249937	-0.26577	-1.089326
H	-2.124926	1.418372	-0.577082
H	-1.650865	-1.580385	-0.192784
H	-0.46843	0.55031	1.669242
H	-0.083261	-1.188913	1.688055
H	1.732163	1.547172	-1.1383
H	1.33846	2.019319	0.533077
H	3.802526	0.510641	-0.184976
H	3.01057	0.318591	1.390005
H	2.27043	-1.190145	-1.201337
H	2.100832	-1.849316	0.444222
