19

C	2.827524	-0.994303	-0.2325
C	1.609198	-0.714365	0.653342
C	0.371178	-0.333754	-0.149472
C	0.346064	1.058156	-0.810278
O	0.371846	2.040148	0.241402
C	-0.875415	1.441439	-0.094006
C	-0.928818	0.066942	0.633422
C	-2.164735	-0.730025	0.301213
O	-2.246076	-1.554499	-0.574514
H	3.7007	-1.26271	0.369607
H	2.633324	-1.819545	-0.926433
H	3.095745	-0.114977	-0.828319
H	1.381425	-1.600356	1.259325
H	1.835238	0.096865	1.354629
H	0.10891	-1.106933	-0.878182
H	0.71793	1.370097	-1.77895
H	-1.696261	2.095734	-0.364393
H	-0.841467	0.171336	1.720411
H	-3.051676	-0.479239	0.92688
