19

O	-2.438584	-0.265985	-0.765696
C	-1.286027	0.036351	-0.035049
C	-1.081837	-0.636894	1.295932
C	-0.201826	-0.999055	0.110252
C	1.146208	-0.320337	-0.083148
O	2.082451	-1.000373	-0.864487
C	1.620506	0.696093	0.925054
C	0.894325	1.144793	-0.332663
C	-0.61355	1.393763	-0.311461
H	-3.193009	0.115356	-0.303851
H	-0.674481	-0.090337	2.139265
H	-1.830722	-1.375837	1.563301
H	-0.312315	-1.982892	-0.329635
H	2.519183	-1.651227	-0.304248
H	1.149869	0.784478	1.898271
H	2.689521	0.882489	0.930569
H	1.489833	1.671554	-1.069325
H	-0.910633	2.168465	0.405601
H	-0.944972	1.72053	-1.30199
