19

C	-1.754292	-1.068743	-0.835729
C	-1.039056	-0.031637	0.034957
O	-1.940182	0.438856	1.050276
C	-0.595589	1.199842	-0.733456
C	0.657391	1.564531	-0.468509
C	1.322473	0.623439	0.497214
O	2.27073	-0.280893	-0.134053
C	1.305946	-1.352305	-0.119414
C	0.284784	-0.509587	0.683357
H	-2.683937	-0.64306	-1.225067
H	-1.143113	-1.389879	-1.682873
H	-2.007379	-1.960794	-0.24898
H	-2.374074	-0.330406	1.436391
H	-1.280433	1.716701	-1.397484
H	1.170507	2.41812	-0.897274
H	1.771907	1.112825	1.367649
H	0.998503	-1.642401	-1.131583
H	1.69612	-2.236663	0.397294
H	0.117566	-0.861389	1.701614
