19

C	2.953448	-0.561102	-0.538801
C	1.680818	-0.218418	0.218986
C	1.826475	0.996265	1.129733
O	0.674796	0.037721	-0.79947
C	-0.598673	0.075916	-0.402052
C	-1.594961	0.965362	-0.657247
C	-2.775097	0.41005	-0.054463
C	-2.401806	-0.756614	0.524975
O	-1.066764	-0.983828	0.315219
H	2.792661	-1.424082	-1.189832
H	3.269821	0.284429	-1.157479
H	3.758888	-0.797399	0.162528
H	1.352706	-1.084872	0.803765
H	0.874573	1.243645	1.608158
H	2.559962	0.793639	1.916326
H	2.161888	1.866824	0.557277
H	-1.494818	1.888397	-1.203431
H	-3.765959	0.836816	-0.051314
H	-2.915207	-1.507302	1.101224
