19

O	4.257569	0.216574	0.228899
C	3.286922	-0.448689	-0.569202
C	1.909958	-0.194415	-0.147979
C	0.789118	0.068377	0.212008
C	-0.567774	0.354451	0.627076
C	-1.590693	-0.823919	0.73869
C	-2.675448	0.140518	0.19134
O	-3.689653	-0.34132	-0.647701
C	-1.547925	1.038202	-0.382084
H	3.997761	1.142178	0.282006
H	3.397454	-0.184691	-1.633654
H	3.51756	-1.516858	-0.485785
H	-0.554998	0.918077	1.566298
H	-1.356299	-1.602354	0.005428
H	-1.738809	-1.285387	1.716767
H	-3.192314	0.646462	1.012855
H	-3.274554	-0.795614	-1.388729
H	-1.301977	0.746065	-1.408223
H	-1.6621	2.122941	-0.335648
