19
../xyz/dsC7O2H10nsd_4144.xyz
C          2.01887        1.39694       -0.30638
C          1.53585       -0.01403       -0.01965
O          2.30761       -0.94344        0.10891
C          0.06930       -0.20533        0.09379
C         -0.47710       -1.32228        0.96703
C         -0.76697       -1.38553       -0.48447
C         -1.90360       -0.42401       -0.84016
C         -1.04105        0.76678       -0.28549
O         -1.52665        1.51193        0.81042
H          3.10243        1.44088       -0.19203
H          1.75716        1.68469       -1.33169
H          1.53297        2.11520        0.36231
H          0.30066       -1.98731        1.32432
H         -1.26349       -1.08101        1.67580
H         -0.37159       -2.16840       -1.11874
H         -2.10357       -0.33829       -1.91018
H         -2.84399       -0.60025       -0.30863
H         -0.73155        1.43022       -1.10401
H         -2.23859        2.08110        0.50019
