19
../xyz/dsC7O2H10nsd_1630.xyz
C         -1.90867        1.52376       -0.14693
C         -1.25002        0.17485        0.03549
C         -2.00599       -0.90137        0.71406
O         -1.86720       -0.90577       -0.70262
C          0.23082        0.13545        0.03677
C          1.08668        1.15071        0.14449
C          2.49851        0.64650        0.07929
O          2.38547       -0.76578       -0.06358
C          1.01525       -1.14515       -0.13615
H         -2.99360        1.40833       -0.19752
H         -1.66783        2.19109        0.68683
H         -1.56689        1.99714       -1.07223
H         -1.48039       -1.69449        1.24262
H         -3.00523       -0.68100        1.08925
H          0.84096        2.19841        0.25897
H          3.05324        1.07112       -0.77373
H          3.07658        0.88426        0.98668
H          0.79777       -1.62375       -1.10162
H          0.79978       -1.88719        0.64812
