19

O	2.344381	-1.181138	-0.65924
C	2.055319	0.084589	-0.138509
C	1.566196	0.213559	1.288342
C	0.617656	0.377234	0.123002
C	-0.162087	1.62575	-0.344846
C	-1.327227	0.705617	-0.734732
C	-1.785274	-0.115015	0.437714
O	-2.930993	-0.906211	0.294929
C	-0.523962	-0.53506	-0.262837
H	3.148831	-1.500378	-0.2373
H	2.668976	0.895274	-0.53607
H	1.484753	-0.702544	1.865326
H	1.857774	1.091647	1.85631
H	-0.384322	2.383172	0.415622
H	0.308921	2.113606	-1.203045
H	-1.957297	0.819156	-1.609685
H	-1.750623	0.288882	1.447456
H	-2.913888	-1.316882	-0.576163
H	-0.413955	-1.513188	-0.716762
