19

O	2.436495	0.241442	-0.359827
C	1.079353	0.016964	-0.148382
C	0.286045	-0.864745	-1.10041
C	-1.076999	-0.930885	-0.3828
C	-0.707788	-1.104062	1.108431
C	0.464126	-0.143873	1.238187
C	0.282782	1.139466	0.441325
C	-1.088585	1.454546	-0.127956
O	-1.787373	0.28943	-0.573682
H	2.894971	-0.602693	-0.276487
H	0.189846	-0.452482	-2.108962
H	0.743965	-1.860573	-1.174596
H	-1.735887	-1.712094	-0.765694
H	-1.56297	-0.864166	1.748089
H	-0.400624	-2.135021	1.322511
H	1.086461	-0.124166	2.125239
H	0.858748	1.997469	0.7724
H	-1.704065	1.956229	0.632718
H	-0.997024	2.146057	-0.977523
