19

C	2.463922	0.505512	0.504743
O	2.338749	-0.723412	-0.212188
C	1.428725	0.33639	-0.525139
C	-0.006729	0.103908	-0.192807
C	-0.493115	-0.597221	1.118657
C	-1.78683	-0.717113	0.279305
C	-0.885794	-0.950812	-0.95374
O	-2.211536	0.649283	0.125539
C	-0.971531	1.303241	-0.219017
H	2.185557	0.461074	1.556392
H	3.35614	1.08953	0.283286
H	1.610404	0.793754	-1.500393
H	0.015604	-1.546496	1.289235
H	-0.550596	-0.003133	2.034235
H	-2.638482	-1.339006	0.547793
H	-0.413978	-1.933858	-0.97863
H	-1.294651	-0.678994	-1.930011
H	-1.052353	1.775658	-1.205759
H	-0.727237	2.071071	0.525033
