19

O	-0.901505	1.992843	0.030343
C	-0.160938	1.043954	-0.031489
O	1.174976	1.266802	0.023724
C	2.14696	0.220475	-0.137053
C	1.665455	-1.131825	0.362347
C	0.360492	-1.474214	-0.354936
C	-0.656135	-0.373365	-0.105144
C	-1.830051	-0.64154	0.837545
C	-2.068402	-0.530206	-0.632497
H	2.410059	0.160278	-1.201734
H	3.029508	0.567418	0.406617
H	2.440752	-1.880067	0.166871
H	1.507442	-1.094184	1.446641
H	0.557539	-1.568499	-1.431718
H	-0.039343	-2.438487	-0.024898
H	-1.863554	-1.621853	1.301021
H	-2.151146	0.183485	1.46131
H	-2.274674	-1.435098	-1.194435
H	-2.548646	0.370176	-0.994848
