19

C	-2.804731	-0.442828	-0.265066
C	-1.557727	-1.291716	-0.00719
C	-0.248114	-0.516476	-0.140913
C	0.983113	-1.406786	0.100288
C	2.246984	-0.705322	-0.081701
C	3.27899	-0.110886	-0.240051
O	-0.220668	0.527607	0.864355
C	-0.182537	1.804424	0.449624
O	-0.222007	2.1991	-0.68218
H	-3.709344	-1.053359	-0.19259
H	-2.889106	0.365833	0.466287
H	-2.779703	0.00859	-1.261948
H	-1.604562	-1.735888	0.99505
H	-1.522317	-2.125887	-0.718657
H	-0.179356	-0.038423	-1.120668
H	0.925399	-1.818389	1.115736
H	0.928881	-2.259402	-0.587841
H	4.1929	0.410736	-0.381866
H	-0.117257	2.45007	1.339144
