19
../xyz/dsC7O2H10nsd_1091.xyz
C          2.19626        1.06214        0.32031
C          1.50963       -0.20956       -0.13042
O          2.08005       -1.08041       -0.75399
C          0.07676       -0.38849        0.22609
C         -0.74305       -1.67931        0.14020
C         -2.01600       -0.81185       -0.13611
C         -1.13775        0.44979       -0.05071
C         -1.35314        1.75693       -0.74177
O         -0.52588        0.44299        1.23644
H          3.23674        1.04277       -0.00576
H          1.69580        1.94336       -0.09449
H          2.13832        1.15660        1.40893
H         -0.44830       -2.29457       -0.71023
H         -0.74352       -2.28104        1.05129
H         -2.43392       -0.97779       -1.13166
H         -2.81533       -0.85471        0.60746
H         -1.51819        1.60631       -1.81292
H         -2.24030        2.25433       -0.33246
H         -0.50088        2.42617       -0.60526
