19

C	-2.726281	1.066032	-0.262141
C	-1.909489	-0.176739	-0.506196
O	-1.612615	-0.990683	0.643816
C	-0.538653	-0.356344	-0.020828
C	0.650349	-1.069067	-0.712471
C	1.553681	0.028179	-0.105555
C	2.818289	0.599919	-0.656341
O	1.407292	-0.090564	1.314045
C	0.408297	0.655447	0.593635
H	-3.777939	0.805107	-0.104699
H	-2.373497	1.600106	0.623568
H	-2.673475	1.739004	-1.12498
H	-2.198134	-0.756847	-1.385546
H	0.869465	-2.079737	-0.36177
H	0.584557	-1.052629	-1.803736
H	3.623148	-0.143172	-0.628687
H	2.684158	0.910214	-1.697564
H	3.133799	1.465134	-0.067562
H	0.233352	1.67823	0.907476
