19

C	-2.982115	-0.167377	-0.310382
C	-2.102795	1.077028	-0.084281
C	-1.049671	0.06132	0.422662
O	-1.892486	-1.051084	0.02659
C	0.296339	0.031513	-0.235798
C	1.412852	0.777716	0.48038
C	2.701323	0.63021	-0.320878
O	2.552538	-0.815736	-0.37028
C	1.38906	-0.731362	0.453952
H	-3.822972	-0.270671	0.388073
H	-3.347376	-0.337232	-1.329543
H	-1.806012	1.591671	-1.00035
H	-2.461708	1.80854	0.640954
H	-0.929063	0.07916	1.517137
H	0.280706	0.016793	-1.324551
H	1.236337	1.478598	1.285346
H	2.739046	1.081422	-1.319558
H	3.600348	0.901515	0.243886
H	1.240325	-1.489531	1.214194
