19
../xyz/dsC7O2H10nsd_4560.xyz
O         -2.44774       -1.48886       -0.06559
C         -1.46617       -0.53875        0.31771
C         -1.70043        0.84249       -0.30205
C         -0.58008        1.80268        0.10823
O          0.69884        1.30062       -0.24654
C          0.98658        0.06427        0.39877
C         -0.04294       -1.01637        0.00455
C          2.34944       -0.33066        0.05720
C          3.46043       -0.69564       -0.21618
H         -2.39529       -1.59595       -1.02195
H         -1.57661       -0.45740        1.40743
H         -1.70772        0.75168       -1.39670
H         -2.67503        1.23530        0.00612
H         -0.67585        2.76621       -0.39879
H         -0.62439        1.98862        1.19550
H          0.92951        0.21241        1.49299
H          0.05671       -1.20674       -1.07152
H          0.17154       -1.95066        0.53145
H          4.44726       -1.00572       -0.45695
