19
../xyz/dsC7O2H10nsd_6032.xyz
C         -3.35188       -0.19233       -0.45241
C         -2.11695        0.16058        0.35745
O         -1.01873       -0.57682       -0.17418
C          0.19729       -0.39868        0.51762
C          1.18344       -1.47832        0.17029
C          2.35336       -0.99517       -0.25041
C          2.38942        0.50928       -0.29080
C          0.95273        0.89263        0.09147
O          0.47126        1.99334        0.03374
H         -3.55215       -1.26668       -0.40481
H         -4.22406        0.34257       -0.06463
H         -3.21473        0.08473       -1.50147
H         -1.90803        1.23554        0.31112
H         -2.25743       -0.10704        1.41867
H          0.00838       -0.35533        1.60638
H          0.92954       -2.52674        0.26812
H          3.20443       -1.60259       -0.53698
H          3.08814        0.94716        0.43504
H          2.66115        0.92838       -1.26713
