19

C	-0.296695	2.122074	-0.21384
C	-0.294634	0.689212	0.311827
C	0.769159	-0.270147	-0.266318
C	0.184001	-1.681838	0.01711
C	-1.327145	-1.524608	-0.203745
C	-1.623867	-0.050168	0.083302
O	-2.711346	0.463319	0.109878
C	2.120559	-0.077948	0.376147
O	3.141355	0.1883	-0.201522
H	-0.357648	2.135656	-1.306857
H	-1.165666	2.65755	0.176495
H	0.609886	2.658142	0.080249
H	-0.170796	0.707198	1.408712
H	0.878297	-0.109413	-1.34429
H	0.639644	-2.445357	-0.616481
H	0.38872	-1.958938	1.058928
H	-1.601851	-1.714673	-1.248725
H	-1.952286	-2.176613	0.411194
H	2.103364	-0.205958	1.487031
