19
../xyz/dsC7O2H10nsd_0724.xyz
O          2.26502       -1.15473       -0.03665
C          1.36764       -0.35395        0.01790
C          1.30467        0.99442       -0.69288
C          0.34211        1.82698        0.16385
C         -0.67807        0.81298        0.74720
C         -1.87782        0.49140       -0.18086
O         -1.55341       -0.71349       -0.86259
C         -0.87552       -1.52164        0.08425
C          0.06966       -0.54758        0.81921
H          2.29829        1.42296       -0.83604
H          0.87623        0.80314       -1.68635
H          0.89419        2.30081        0.98308
H         -0.15010        2.62739       -0.39535
H         -1.03896        1.14960        1.72112
H         -2.79306        0.35485        0.41703
H         -2.07155        1.26032       -0.93419
H         -1.58468       -1.97585        0.79529
H         -0.35095       -2.31837       -0.44844
H          0.31154       -0.89474        1.82580
