19
../xyz/dsC7O2H10nsd_3102.xyz
C          2.50381       -1.43127       -0.01747
C          2.00186        0.00258        0.00240
C          0.82863        0.52487       -0.87646
O          0.73170        1.69465        0.03084
C          0.84565        0.50836        0.91411
C         -0.20188       -0.21749        0.02333
C         -1.61667        0.27576        0.03712
C         -2.70205       -0.53347        0.60808
O         -2.53053       -0.44417       -0.80482
H          3.11946       -1.60370       -0.90662
H          3.13385       -1.62454        0.85732
H          1.70266       -2.17425       -0.02085
H          2.82615        0.72051        0.00332
H          0.79112        0.71849       -1.94920
H          0.83349        0.68463        1.99107
H         -0.17200       -1.30900        0.00659
H         -1.73492        1.35615        0.01047
H         -2.47661       -1.50588        1.04605
H         -3.58871       -0.04225        1.00694
