19
../xyz/dsC7O2H10nsd_0705.xyz
O          2.82500       -0.90744        0.14181
C          1.78023       -0.34085       -0.03287
C          1.50059        1.14437        0.21613
O          0.17367        1.37202       -0.21465
C         -0.55809        0.14593       -0.15034
C         -1.36244       -0.13060        1.15882
C         -2.56483       -0.55217        0.27083
C         -1.89021        0.17739       -0.92412
C          0.46176       -0.93204       -0.52982
H          1.63671        1.35893        1.28844
H          2.18882        1.78287       -0.34688
H         -0.96131       -0.86026        1.86729
H         -1.55428        0.81044        1.68069
H         -2.60990       -1.63405        0.12164
H         -3.55318       -0.20300        0.57350
H         -1.91251       -0.29825       -1.90783
H         -2.23623        1.21008       -1.01780
H          0.28076       -1.92183       -0.10731
H          0.52975       -1.03359       -1.62074
