19
../xyz/dsC7O2H10nsd_1830.xyz
C          2.18113       -0.74366       -0.24417
C          0.72631       -0.42312       -0.02491
C         -0.09061       -1.09085        1.11353
C         -1.19320       -1.11412        0.03900
C         -2.01364        0.17775        0.03072
C         -1.07258        1.37602       -0.26290
C          0.39847        1.07510        0.03275
O          1.21542        1.92511        0.29124
O         -0.17828       -1.02267       -1.00551
H          2.50504       -0.38562       -1.22613
H          2.78976       -0.24108        0.51168
H          2.34828       -1.82235       -0.19227
H          0.29733       -2.08473        1.34573
H         -0.26783       -0.52855        2.03380
H         -1.80482       -2.01436       -0.06051
H         -2.79624        0.12083       -0.73152
H         -2.51627        0.29668        0.99720
H         -1.10910        1.60892       -1.33345
H         -1.35849        2.28803        0.26552
