19
../xyz/dsC7O2H10nsd_2137.xyz
C         -2.41375       -0.13957       -0.05049
C         -0.90368       -0.02621        0.02320
C         -0.22308       -0.78173        1.19293
C          1.18814       -0.94969        0.65556
C          1.02475       -0.81511       -0.85132
O         -0.33558       -0.62967       -1.15791
C          1.66557        0.29622       -0.06700
O          0.99831        1.51202        0.13570
C         -0.42352        1.43097        0.02776
H         -2.70537       -1.18871       -0.14733
H         -2.87664        0.26943        0.85242
H         -2.80214        0.40525       -0.91605
H         -0.27128       -0.20460        2.12139
H         -0.69866       -1.75364        1.35982
H          1.88340       -1.63707        1.12249
H          1.55128       -1.40036       -1.59543
H          2.73152        0.46612       -0.16972
H         -0.85099        1.98629        0.87251
H         -0.74951        1.90937       -0.90619
