19

O	3.533938	-0.352993	-0.083764
C	2.210833	-0.302602	0.424067
C	1.214017	0.304074	-0.572839
C	-0.204523	0.252638	-0.082091
C	-0.841795	1.247838	0.854281
C	-1.428487	1.050228	-0.521027
C	-2.237602	-0.281623	-0.603116
O	-2.231529	-0.927871	0.679055
C	-1.080643	-1.051231	-0.166865
H	3.829031	0.552089	-0.2259
H	1.938355	-1.341565	0.639837
H	2.16209	0.245579	1.377721
H	1.49228	1.348576	-0.771019
H	1.311278	-0.230562	-1.526867
H	-1.386597	0.916924	1.729362
H	-0.285259	2.172378	0.976119
H	-1.48353	1.834507	-1.264765
H	-3.049957	-0.517006	-1.27948
H	-0.737759	-2.049933	-0.411794
