19

O	2.503428	-0.839641	-0.352692
C	1.27951	-0.293207	0.036048
C	1.242682	0.796135	1.078426
C	0.939888	1.117381	-0.376749
C	-0.523305	1.162621	-0.788775
C	-1.10247	-0.130779	-0.214123
C	-2.522438	-0.480999	-0.25525
O	-1.931837	0.006374	0.952986
C	0.028468	-1.149558	-0.12392
H	2.819918	-1.400249	0.363987
H	0.43901	0.817686	1.807667
H	2.207508	1.130649	1.443493
H	1.668419	1.703676	-0.923947
H	-1.072186	2.028874	-0.407191
H	-0.604787	1.163526	-1.882798
H	-3.23212	0.193303	-0.734494
H	-2.823811	-1.528261	-0.239997
H	-0.14757	-1.854686	0.69465
H	0.118877	-1.717949	-1.057662
