19

C	2.546701	0.232172	-0.409463
C	1.479543	-0.348521	0.540056
C	0.480285	0.739311	1.008988
C	-0.548585	0.993447	-0.075569
O	-0.701368	2.057762	-0.624955
C	-1.376303	-0.245749	-0.449203
O	-2.411153	-0.446675	0.525177
C	-0.495022	-1.459244	-0.572976
C	0.75652	-1.503441	-0.109795
H	3.14477	0.992518	0.10237
H	3.224197	-0.550493	-0.7646
H	2.080409	0.697279	-1.283548
H	2.003914	-0.733901	1.424354
H	-0.045807	0.382142	1.902892
H	0.988558	1.673291	1.258337
H	-1.891416	-0.023627	-1.388718
H	-2.050833	-1.017619	1.212199
H	-0.944246	-2.335674	-1.033926
H	1.331781	-2.420472	-0.223361
