19

O	2.366245	-0.283577	-0.748396
C	1.149834	-0.148461	-0.059383
C	1.128667	0.636618	1.218485
C	0.579798	1.240467	-0.084006
C	-0.848631	1.580721	-0.282305
C	-1.92793	0.795394	-0.28941
C	-2.020509	-0.690709	-0.079318
O	-0.919886	-1.30753	0.557746
C	0.26105	-1.372798	-0.210334
H	2.929751	-0.877985	-0.239533
H	0.399861	0.347916	1.966433
H	2.06886	1.031074	1.588299
H	1.260652	1.956338	-0.534293
H	-1.020504	2.641814	-0.452798
H	-2.893556	1.264024	-0.473861
H	-2.883333	-0.906736	0.56255
H	-2.221388	-1.188057	-1.04645
H	0.8165	-2.250043	0.14841
H	0.038615	-1.536892	-1.275931
