19

C	2.378102	1.627298	0.251326
C	2.353785	0.279494	-0.493157
C	1.205022	-0.601204	-0.031804
O	1.379266	-1.588122	0.652412
C	-0.170633	-0.186648	-0.45793
C	-1.178226	-1.267305	-0.719735
C	-1.310345	-0.450479	0.540365
C	-2.389696	0.565871	0.604791
O	-2.773379	1.208056	-0.345111
H	2.503176	1.474838	1.327419
H	3.210394	2.241559	-0.102669
H	1.455045	2.193631	0.094495
H	2.25412	0.45967	-1.57097
H	3.281886	-0.270543	-0.319635
H	-0.275876	0.724861	-1.034854
H	-1.910534	-1.077546	-1.495565
H	-0.83532	-2.287838	-0.59726
H	-1.014831	-0.927328	1.46777
H	-2.84321	0.707057	1.609724
