19

C	2.262026	-0.633041	-0.032026
O	2.158289	0.81047	-0.062949
C	0.830726	0.77404	0.496396
C	0.82693	-0.783078	0.496217
C	-0.262276	-0.768765	-0.613385
O	-1.540152	-1.206437	-0.198124
C	-2.157713	-0.15868	0.543598
C	-1.68599	1.14587	-0.118941
C	-0.268044	0.803667	-0.593957
H	2.468151	-1.05922	-1.023029
H	3.04359	-0.959425	0.66494
H	0.723845	1.425389	1.369714
H	0.64675	-1.422961	1.358951
H	-0.010535	-1.298918	-1.535737
H	-3.238813	-0.313073	0.499345
H	-1.851034	-0.19543	1.600807
H	-2.318782	1.380911	-0.979799
H	-1.714875	1.998763	0.565529
H	0.03267	1.331611	-1.499545
