19

O	2.727456	-0.780366	0.055111
C	1.885225	0.153701	-0.60456
C	0.49498	0.197047	-0.022874
C	0.18197	1.140523	1.133213
C	-0.449744	1.357295	-0.218966
O	-1.750456	0.882205	-0.461047
C	-1.744845	-0.525647	-0.539642
C	-1.534668	-1.318777	0.722353
C	-0.367247	-1.038796	-0.205928
H	2.705579	-0.571495	0.995259
H	2.321473	1.16557	-0.594232
H	1.849614	-0.174856	-1.649613
H	-0.433039	0.809155	1.960328
H	0.963085	1.842305	1.413409
H	-0.212973	2.247048	-0.794047
H	-2.374278	-0.903502	-1.3381
H	-1.607184	-0.81713	1.679275
H	-1.912286	-2.336334	0.725989
H	0.089975	-1.86754	-0.732359
