19
../xyz/dsC7O2H10nsd_4646.xyz
O         -4.13804        0.95100        0.34445
C         -3.60372       -0.13573       -0.39856
C         -2.20038       -0.41661       -0.10261
C         -1.03323       -0.59326        0.13568
C          0.36621       -0.83910        0.44932
O          1.20178       -0.15490       -0.47548
C          2.55666       -0.35369       -0.21198
C          3.48116        0.73107       -0.65284
C          3.23753        0.50293        0.82703
H         -3.54291        1.69882        0.22676
H         -4.22242       -1.00344       -0.14372
H         -3.71618        0.02458       -1.48290
H          0.58592       -0.50911        1.47721
H          0.56854       -1.92295        0.41618
H          2.88527       -1.38948       -0.31243
H          4.43892        0.45309       -1.07755
H          3.01896        1.60377       -1.09942
H          4.02738        0.06823        1.42957
H          2.62118        1.23400        1.33835
