19

C	-0.764396	1.926426	0.120846
C	-0.338704	0.496153	-0.024122
C	-1.262433	-0.623262	-0.415564
O	-2.617941	-0.270497	-0.341986
C	-0.533021	-0.69515	0.912271
C	0.97214	-1.048991	0.800271
C	1.447557	-1.303154	-0.621812
C	1.174625	0.101594	-0.151166
O	2.162943	1.068374	-0.084317
H	-0.176848	2.435078	0.891383
H	-0.625804	2.478585	-0.817279
H	-1.822267	1.978874	0.385696
H	-1.036907	-1.303271	-1.234983
H	-3.101962	-1.034804	-0.012064
H	-1.092671	-0.725681	1.839571
H	1.574014	-1.338899	1.651835
H	2.51225	-1.515088	-0.667117
H	0.867036	-1.832571	-1.368763
H	2.368539	1.353062	-0.982194
