19
../xyz/dsC7O2H10nsd_0927.xyz
O         -2.93809       -0.99244        0.29319
C         -2.82977        0.09548       -0.20330
O         -1.71275        0.83312       -0.25560
C         -0.54875        0.25701        0.35702
C          0.25349       -0.78131       -0.46547
C          1.51954       -0.00590       -0.06931
C          2.68169       -0.56680        0.69766
C          2.87475       -0.02471       -0.70264
C          0.66941        1.20176        0.35816
H         -3.64448        0.65192       -0.69289
H         -0.81895       -0.11721        1.34560
H          0.16593       -1.82611       -0.16162
H          0.02700       -0.69281       -1.53296
H          3.07571        0.01182        1.52742
H          2.73143       -1.64175        0.84027
H          3.39942        0.91859       -0.81800
H          3.05431       -0.73386       -1.50466
H          0.91519        1.70066        1.29866
H          0.57899        1.95018       -0.43532
