19

C	-1e-06	-3.6e-05	1.667983
C	-0.745461	-2e-06	0.364758
C	-1.702266	-1.042108	-0.208318
O	-2.5408	1.6e-05	-0.75274
C	-1.702251	1.042122	-0.208308
C	0.745463	-2.2e-05	0.36476
C	1.702263	-1.042113	-0.208347
O	2.540799	2.3e-05	-0.752741
C	1.702255	1.042117	-0.208277
H	2.2e-05	0.913169	2.257562
H	-2.6e-05	-0.913264	2.257525
H	-1.296091	-1.694333	-0.993185
H	-2.235789	-1.65668	0.52898
H	-1.296066	1.694347	-0.993168
H	-2.235766	1.656696	0.528995
H	2.235787	-1.656709	0.52893
H	1.296082	-1.694313	-0.99323
H	2.235773	1.656667	0.529042
H	1.296071	1.694367	-0.993118
