19
../xyz/dsC7O2H10nsd_2166.xyz
O         -0.94129       -0.94012        1.61369
C         -0.62136       -0.56626        0.31799
C         -1.53729       -0.40406       -0.91970
C         -0.13050        0.07583       -1.36429
C          0.52417       -1.11493       -0.59432
C          1.87183       -0.67655       -0.01291
C          1.51393        0.76749        0.42493
C          0.04263        0.81042       -0.00294
O         -0.66314        2.00061        0.17421
H         -1.34257       -1.81553        1.59458
H         -1.90640       -1.32282       -1.38523
H         -2.31021        0.36285       -0.85622
H          0.16361        0.45196       -2.34203
H          0.42475       -2.11561       -1.01816
H          2.17356       -1.30810        0.82817
H          2.67509       -0.70680       -0.75509
H          1.62324        0.92489        1.50334
H          2.09989        1.53662       -0.08640
H         -0.74595        2.15704        1.12131
