19
../xyz/dsC7O2H10nsd_4449.xyz
C         -2.69121        0.36057        0.32109
C         -1.43871       -0.15939       -0.37529
C         -0.87479       -1.50661        0.09835
O          0.51697       -1.48460       -0.24413
C          0.95970       -0.16593       -0.06689
C          2.33207        0.22046       -0.52641
C          2.04258        0.15873        0.94954
C         -0.21483        0.74772       -0.19733
O         -0.20191        1.95318       -0.14385
H         -2.56683        0.35270        1.40903
H         -2.88399        1.39229        0.01553
H         -3.56759       -0.24592        0.07480
H         -1.60897       -0.21611       -1.46039
H         -1.00089       -1.61323        1.18775
H         -1.31807       -2.37575       -0.39144
H          2.92786       -0.57522       -0.95910
H          2.43214        1.19507       -0.99189
H          2.43341       -0.68592        1.50513
H          1.94348        1.09013        1.49605
