19

C	-2.68031	-0.774261	0.380059
C	-1.476418	-0.10827	-0.279428
C	-1.400607	1.434427	-0.115977
C	0.077421	1.715695	-0.120975
C	0.793582	0.595021	0.047148
C	2.247619	0.500308	0.101949
O	2.843992	-0.552668	0.236766
C	-0.103948	-0.61957	0.215615
O	0.296823	-1.74808	-0.534409
H	-2.644994	-1.85825	0.236073
H	-2.700706	-0.577016	1.458285
H	-3.621572	-0.408846	-0.04366
H	-1.485207	-0.330441	-1.353245
H	-1.941664	1.98002	-0.896977
H	-1.840286	1.757461	0.840073
H	0.497226	2.712369	-0.224055
H	2.802127	1.458322	0.00516
H	-0.156426	-0.876956	1.289412
H	1.220942	-1.910777	-0.300277
