19

O	-2.860687	-0.284149	0.184727
C	-1.768325	0.557779	0.496066
C	-0.687016	0.469236	-0.579945
O	-0.310188	-0.912724	-0.770141
C	1.057632	-1.049117	-0.400301
C	1.277146	-0.786762	1.123092
C	1.578666	0.670827	0.763309
C	1.755354	0.301824	-0.705049
C	0.621726	1.192825	-0.303203
H	-2.472083	-1.1402	-0.033777
H	-2.154749	1.582566	0.542652
H	-1.340739	0.320221	1.481838
H	-1.122107	0.818386	-1.526681
H	1.439509	-1.976778	-0.823869
H	0.440573	-1.021277	1.787798
H	2.179128	-1.290257	1.484139
H	2.168345	1.363399	1.352475
H	2.53301	0.527172	-1.421396
H	0.685018	2.252074	-0.523684
