19

C	-0.824665	-0.981245	-1.05968
O	-0.966478	0.417204	-1.27912
C	-0.625735	1.210456	-0.13708
C	-1.122535	0.516053	1.134089
O	-0.482266	-0.739497	1.33493
C	0.056197	-1.313804	0.143958
C	1.536235	-0.91812	-0.017328
C	1.797216	0.563056	-0.052027
C	0.86202	1.509452	-0.087452
H	-1.815726	-1.431525	-0.8964
H	-0.403464	-1.423865	-1.970396
H	-1.18099	2.145896	-0.259575
H	-0.917736	1.133103	2.015704
H	-2.2121	0.378483	1.056459
H	0.012106	-2.400147	0.28925
H	2.093419	-1.351559	0.8241
H	1.944026	-1.398541	-0.919602
H	2.845391	0.855151	-0.038254
H	1.152631	2.556268	-0.094642
