19
../xyz/dsC7O2H10nsd_0454.xyz
C          2.19503       -1.33174       -0.16296
O          2.30836       -0.36129        0.88494
C          2.04134        0.10275       -0.43953
C          0.70210        0.72720       -0.67714
C          0.19232        1.81250        0.23798
C         -0.43876        0.43894        0.26712
C         -1.80948        0.22310       -0.27127
C         -2.88796       -0.35986        0.53650
O         -2.21725       -1.13854       -0.45684
H          3.12095       -1.84152       -0.42369
H          1.30474       -1.95672       -0.12068
H          2.88414        0.62198       -0.89999
H          0.44859        0.82884       -1.72989
H          0.80584        2.08836        1.08824
H         -0.36789        2.63033       -0.20338
H         -0.18465       -0.17388        1.12640
H         -2.09480        0.88337       -1.09361
H         -2.68653       -0.64528        1.56853
H         -3.92686       -0.11428        0.31905
