19
../xyz/dsC7O2H10nsd_3981.xyz
O         -3.11625        0.07304       -0.39799
C         -1.70437       -0.00584       -0.49946
C         -1.08602        1.23217        0.18412
C          0.24658        0.76132        0.73851
C          0.24846       -0.73517        0.76855
C         -1.08556       -1.22658        0.23439
C          1.15613       -0.00517       -0.22302
C          2.60385        0.00092        0.06867
O          3.47908       -0.01662       -0.76158
H         -3.49735       -0.62861       -0.93487
H         -1.40984       -0.02643       -1.55814
H         -1.00570        2.08401       -0.49712
H         -1.74398        1.52763        1.00935
H          0.72835        1.34350        1.51665
H          0.73167       -1.28483        1.56937
H         -1.00084       -2.10702       -0.41157
H         -1.74073       -1.48710        1.07384
H          0.91515       -0.02602       -1.28084
H          2.84626        0.02355        1.15944
