19

C	1.608361	-0.626782	-1.271855
C	1.282307	0.161068	1.1e-05
C	1.99043	1.516401	-0.000752
C	1.608678	-0.625501	1.272594
O	-0.142464	0.546096	-5.2e-05
C	-1.111618	-0.37609	7e-06
O	-0.974388	-1.576212	1.4e-05
C	-2.411637	0.269599	4e-05
C	-3.514002	0.74771	3.6e-05
H	1.103802	-1.59274	-1.279865
H	1.307213	-0.060617	-2.158366
H	2.688591	-0.793303	-1.326762
H	1.717358	2.095439	0.885566
H	3.074491	1.371771	-0.000795
H	1.717171	2.094544	-0.887596
H	1.104198	-1.591487	1.281672
H	2.688932	-0.791878	1.327448
H	1.307668	-0.058476	2.158604
H	-4.489726	1.169238	-9.8e-05
