19
../xyz/dsC7O2H10nsd_5443.xyz
C         -3.14617       -0.44728        0.05041
O         -2.18644        0.57927       -0.09993
C         -0.91953        0.19740        0.33158
C         -0.01486       -0.45967       -0.69466
C          0.20047        0.99090       -0.26767
C          1.58698        0.81640        0.38680
C          2.36442       -0.01025       -0.67340
C          1.31482       -1.03705       -0.16722
O          1.43709       -0.41951        1.15371
H         -3.24419       -0.75787        1.10151
H         -4.10316       -0.04618       -0.29128
H         -2.89168       -1.33360       -0.54883
H         -0.86206       -0.12260        1.36969
H         -0.40438       -0.73143       -1.66764
H         -0.02073        1.83520       -0.90789
H          2.02141        1.64014        0.95245
H          2.33441        0.30657       -1.71919
H          3.37594       -0.25568       -0.34537
H          1.47252       -2.11531       -0.16872
