19
../xyz/dsC7O2H10nsd_2951.xyz
C          1.74122        1.74838        0.36307
C          0.78763        0.79633       -0.37921
C         -0.62919        0.80570        0.16477
C         -1.63620       -0.12627       -0.45195
O         -3.00025        0.17577       -0.46582
C         -0.93824       -0.55739        0.80964
C          0.27990       -1.44553        0.67128
C          1.26926       -0.66176       -0.20890
O          2.28321       -1.10632       -0.67961
H          1.73307        1.55570        1.44130
H          2.76331        1.61670       -0.00116
H          1.44618        2.79011        0.20524
H          0.82531        1.03144       -1.44984
H         -1.00413        1.71859        0.61879
H         -1.37432       -0.62624       -1.38204
H         -3.21853        0.66394        0.33448
H         -1.53056       -0.60927        1.71735
H          0.76242       -1.62582        1.64026
H          0.08729       -2.42746        0.22692
