19
../xyz/dsC7O2H10nsd_1045.xyz
C         -3.97316        0.22346       -0.44603
C         -2.65088       -0.24365       -0.05087
C         -1.56854       -0.65649        0.28247
C         -0.23059       -1.11484        0.66198
C          0.84189       -0.61886       -0.29997
C          2.16453       -0.12356        0.21716
O          3.29193       -0.46638       -0.53156
C          1.16697        0.86192       -0.33054
O          0.53938        1.71330        0.58122
H         -3.92717        0.82861       -1.35818
H         -4.64718       -0.61768       -0.64208
H         -4.43116        0.83824        0.33666
H         -0.00673       -0.75950        1.67399
H         -0.20758       -2.21051        0.70885
H          0.87797       -1.12165       -1.26119
H          2.29336       -0.11243        1.30051
H          3.91065        0.27095       -0.48828
H          1.39806        1.29555       -1.30384
H         -0.41210        1.64508        0.43110
