19

O	-0.947626	1.891025	-0.189281
C	-0.549444	0.593331	0.153747
C	-1.686074	-0.27949	0.731284
C	-1.391847	-1.372795	-0.345272
C	-0.284113	-0.472919	-0.96972
C	1.204739	-0.718138	-0.655548
C	1.271621	-0.920963	0.874624
C	0.859404	0.558615	0.790922
O	1.671178	0.667009	-0.434287
H	-0.20778	2.280263	-0.673494
H	-1.579703	-0.577783	1.777778
H	-2.656016	0.203996	0.602517
H	-1.047851	-2.334607	0.04272
H	-2.23003	-1.562943	-1.018044
H	-0.449664	-0.153234	-1.999163
H	1.821933	-1.278218	-1.357948
H	0.62046	-1.646322	1.364735
H	2.30122	-1.025317	1.217574
H	1.093294	1.304045	1.551652
