19
../xyz/dsC7O2H10nsd_0593.xyz
C         -1.82370        0.60902       -0.04212
O         -1.65455       -0.79946       -0.24477
C         -0.36464       -1.17450        0.16141
O          0.59014       -1.10739       -0.90770
C          1.41650        0.03805       -0.64164
C          0.55590        1.30847       -0.76520
C         -0.45814        1.12794        0.41284
C          0.13617       -0.10719        1.15874
C          1.64020       -0.06002        0.87432
H         -2.16755        1.07219       -0.97371
H         -2.59462        0.76786        0.72420
H         -0.42172       -2.21085        0.50199
H          2.28830       -0.01197       -1.29361
H          1.16787        2.20707       -0.63781
H          0.06179        1.36770       -1.73820
H         -0.54409        2.02146        1.03333
H         -0.20040       -0.24985        2.18508
H          2.14163        0.81133        1.30469
H          2.17031       -0.97075        1.16372
