19

O	-2.543685	-0.873567	0.073595
C	-2.144619	0.48599	0.084873
C	-0.682533	0.567586	-0.192406
C	0.171368	-0.420049	-0.441114
C	0.586991	-1.80489	-0.023522
O	1.878834	-1.24549	0.383647
C	1.602258	-0.007263	-0.361649
C	1.546176	1.368471	0.321748
C	0.114076	1.871174	-0.067561
H	-3.49373	-0.909953	0.21583
H	-2.69972	1.076704	-0.666185
H	-2.355029	0.96043	1.060789
H	0.034192	-2.257196	0.804403
H	0.716897	-2.539368	-0.829052
H	2.193064	-0.006384	-1.288332
H	1.599668	1.223655	1.405329
H	2.342326	2.056941	0.024512
H	0.131923	2.448354	-1.0021
H	-0.313087	2.533169	0.694653
