19

O	2.491034	1.043115	0.34796
C	2.469641	0.087445	-0.378439
O	1.611257	-0.939955	-0.326265
C	0.602274	-0.891917	0.712109
C	-0.660886	-0.247987	0.213863
C	-1.533921	-0.673809	-1.006483
C	-2.261472	0.545082	-0.370713
C	-1.990097	-0.103518	1.017568
C	-0.869485	1.227682	-0.246216
H	3.173026	-0.090005	-1.207079
H	0.427373	-1.937174	0.981188
H	1.003927	-0.352254	1.573401
H	-1.093534	-0.52419	-1.995647
H	-2.03847	-1.641781	-0.933347
H	-3.190587	1.003708	-0.708631
H	-1.968178	0.569153	1.879568
H	-2.527676	-1.029295	1.243252
H	-0.381663	1.522239	-1.178881
H	-0.758867	1.996447	0.522494
