19

O	2.743821	-0.51174	0.421318
C	1.841877	-0.213956	-0.634482
C	0.474996	0.117669	-0.11758
O	0.327058	1.441437	0.454093
C	-0.489238	1.069139	-0.670489
C	-1.828064	0.377447	-0.325455
C	-1.466192	-1.093436	-0.740605
C	-0.475984	-0.953683	0.470824
C	-1.590301	-0.099165	1.134553
H	2.773212	0.26629	0.9894
H	2.207722	0.61594	-1.25682
H	1.799798	-1.11357	-1.258359
H	-0.351536	1.652585	-1.575431
H	-2.749775	0.865797	-0.639952
H	-2.275024	-1.806009	-0.560038
H	-1.038958	-1.252179	-1.736008
H	-0.019625	-1.811766	0.961647
H	-2.41409	-0.718844	1.49287
H	-1.301318	0.640089	1.878815
