19
../xyz/dsC7O2H10nsd_6024.xyz
O         -3.56276       -0.09466        0.07844
C         -2.31611        0.51838       -0.21145
C         -1.24203       -0.56291       -0.15378
C          0.14033       -0.04254       -0.51808
C          1.34935       -0.98712       -0.18653
O          1.22894       -0.56162        1.21136
C          0.93465        0.73535        0.59701
C          2.25383        1.04499       -0.13039
C          2.54027       -0.14237       -0.66950
H         -4.24236        0.58549        0.06994
H         -2.32458        0.98422       -1.21131
H         -2.08650        1.31528        0.51470
H         -1.22261       -1.00179        0.84742
H         -1.52763       -1.35910       -0.85299
H          0.15697        0.41337       -1.51279
H          1.33418       -2.06623       -0.33687
H          0.49044        1.46677        1.27146
H          2.76966        1.99241       -0.17839
H          3.36135       -0.46285       -1.29323
