19

O	-2.749381	-1.141861	-0.211581
C	-1.815278	-0.410937	-0.054564
C	-1.670165	1.046905	-0.481631
C	-0.458229	1.539442	0.312438
C	0.328071	0.235909	0.583837
O	-0.671789	-0.811713	0.563404
C	1.409033	-0.058004	-0.424564
C	2.821604	0.397782	-0.146138
C	2.477883	-1.068976	-0.106822
H	-1.501185	1.066051	-1.563931
H	-2.597328	1.587979	-0.289145
H	0.152005	2.273557	-0.216636
H	-0.778939	1.985971	1.25774
H	0.759601	0.223255	1.589572
H	1.080413	-0.00937	-1.459956
H	3.410519	0.772061	-0.975604
H	3.017713	0.898958	0.796452
H	2.832223	-1.705303	-0.909397
H	2.436821	-1.557292	0.860982
