19

C	-2.450958	-0.242283	-0.449831
O	-2.102929	0.323878	0.815119
C	-1.264781	-0.704834	0.284814
C	0.113852	-0.285859	-0.114954
C	1.15532	-1.345551	-0.550205
C	2.232443	-0.626802	0.322817
C	1.166511	0.385754	0.827452
C	0.971138	1.611978	-0.071006
O	0.122933	0.869903	-0.983091
H	-3.349538	-0.857591	-0.456757
H	-2.308863	0.417458	-1.301486
H	-1.320709	-1.652119	0.8238
H	0.922033	-2.356465	-0.202745
H	1.329022	-1.371101	-1.627744
H	2.647078	-1.257219	1.112064
H	3.063805	-0.177876	-0.227236
H	1.0354	0.507316	1.901438
H	0.416428	2.433576	0.397234
H	1.86416	2.009354	-0.569314
