19

C	-2.321035	-1.717909	0.086101
C	-1.301778	-0.618284	-0.009192
C	-0.03758	-0.831673	-0.375821
C	0.998339	0.265157	-0.420142
O	0.560056	1.484515	0.139192
C	-0.77317	1.81678	-0.216602
C	-1.759966	0.78334	0.324974
C	2.231029	-0.163016	0.378391
O	2.935723	-1.085887	0.069225
H	-2.745528	-1.771263	1.09708
H	-3.162521	-1.536821	-0.594833
H	-1.888956	-2.692975	-0.153064
H	0.323547	-1.819886	-0.645347
H	1.334451	0.412189	-1.464016
H	-0.958967	2.809582	0.201572
H	-0.867142	1.885812	-1.312069
H	-1.866745	0.894274	1.412874
H	-2.755316	0.967408	-0.100652
H	2.405918	0.456299	1.284866
