19
../xyz/dsC7O2H10nsd_3112.xyz
C         -1.29656        1.86325        0.04971
C         -1.44994        0.35273       -0.02273
C         -0.79356       -0.61145        1.02159
C         -0.77657       -1.68369       -0.10617
C         -0.67312       -0.48502       -1.07312
O          0.69640       -0.04335       -1.17794
C          1.40679        0.10280       -0.02660
O          2.55475        0.44701       -0.07242
C          0.65304       -0.18354        1.27460
H         -1.77765        2.25808        0.95108
H         -0.25107        2.18212        0.06075
H         -1.77101        2.33975       -0.81461
H         -2.50980        0.09097       -0.11221
H         -1.33080       -0.82239        1.94879
H          0.04139       -2.40847       -0.12345
H         -1.73335       -2.20014       -0.20811
H         -1.03030       -0.55910       -2.10029
H          1.21214       -0.96045        1.80729
H          0.72078        0.71983        1.88995
