19

C	2.576281	-0.829055	0.819118
C	2.040759	0.334089	0.011603
O	2.624726	1.388458	-0.101684
C	0.723907	0.140784	-0.691013
O	0.209262	-1.190858	-0.809914
C	-0.494022	-0.28574	0.03738
C	-1.853048	0.147319	-0.386266
C	-3.068287	-0.463225	0.27374
C	-2.696407	0.964861	0.564313
H	3.506917	-0.533306	1.303892
H	1.853077	-1.160214	1.571583
H	2.747547	-1.686037	0.159631
H	0.594822	0.779724	-1.563814
H	-0.394229	-0.506357	1.102639
H	-1.933992	0.378726	-1.443578
H	-3.934449	-0.659471	-0.347566
H	-2.90236	-1.20105	1.051768
H	-3.303461	1.758586	0.144847
H	-2.280871	1.194399	1.540132
