19
../xyz/dsC7O2H10nsd_1003.xyz
C         -3.98655       -0.85246        0.07818
C         -2.63296       -0.31906        0.11344
C         -1.51001        0.11248        0.14452
C         -0.16925        0.68081        0.19116
C         -0.04219        1.97855       -0.61068
O          0.74738       -0.31346       -0.35084
C          1.99656       -0.31885        0.16238
C          2.82302       -1.40814       -0.47846
O          2.38369        0.44307        1.01330
H         -4.00605       -1.83900       -0.39769
H         -4.39886       -0.96233        1.08707
H         -4.65814       -0.19819       -0.48824
H          0.13260        0.86632        1.22643
H         -0.26474        1.79650       -1.66498
H         -0.74750        2.72108       -0.22817
H          0.97165        2.37369       -0.51325
H          3.82894       -1.39353       -0.06086
H          2.35764       -2.38194       -0.30219
H          2.86400       -1.25945       -1.56108
