19

C	-1.001668	1.950223	-0.814073
C	-0.211209	1.051428	0.154072
C	1.060475	0.489059	-0.51019
C	1.966305	-0.289726	0.447879
O	3.116352	-0.810284	-0.197277
C	-1.108468	-0.063285	0.6856
O	-1.413449	-0.166018	1.854015
C	-1.603831	-1.016818	-0.300283
C	-2.011426	-1.809798	-1.109579
H	-0.3742	2.780721	-1.151317
H	-1.32549	1.38915	-1.695897
H	-1.889336	2.369795	-0.331368
H	0.066201	1.632656	1.04078
H	0.790177	-0.160312	-1.350556
H	1.624947	1.332039	-0.931757
H	2.23751	0.34433	1.307433
H	1.437099	-1.159725	0.85127
H	3.646946	-0.066612	-0.500436
H	-2.378141	-2.518123	-1.812616
