19

C	2.676879	-1.115495	-0.367591
O	1.363932	-1.356671	0.107008
C	0.753414	-0.221205	0.614981
C	-0.735306	-0.186468	0.626483
C	-1.560517	-1.325311	0.071304
O	-2.855236	-0.902688	-0.327023
C	0.031619	0.719641	-0.353269
C	0.070958	2.13777	-0.173773
C	0.107687	3.329447	-0.008694
H	3.328227	-0.735994	0.433002
H	3.068282	-2.070536	-0.723743
H	2.68045	-0.389632	-1.192413
H	1.284099	0.254648	1.440671
H	-1.189202	0.329469	1.467044
H	-1.017133	-1.815552	-0.747828
H	-1.722245	-2.079893	0.848282
H	-2.743257	-0.195888	-0.971685
H	0.035043	0.366828	-1.382316
H	0.137763	4.38115	0.132456
