19
../xyz/dsC7O2H10nsd_4548.xyz
O         -2.50670       -0.28718       -0.25353
C         -1.08578       -0.23167       -0.30627
C         -0.57022       -1.61340        0.11666
C          0.93908       -1.64936        0.46588
C          1.82370       -0.79871       -0.42576
C          1.79532        0.53527       -0.43082
C          0.86762        1.30157        0.44944
O         -0.16509        2.08885       -0.16885
C         -0.54396        0.90349        0.54883
H         -2.84663        0.51608       -0.66161
H         -0.74906       -0.02788       -1.33048
H         -1.14702       -1.94961        0.98506
H         -0.79561       -2.31355       -0.69424
H          1.06347       -1.31477        1.50193
H          1.28002       -2.68833        0.44362
H          2.51774       -1.31555       -1.08438
H          2.46193        1.10821       -1.07062
H          1.32347        1.80347        1.30572
H         -1.08847        1.08544        1.47631
