19
../xyz/dsC7O2H10nsd_6077.xyz
C         -3.70839       -0.12164        0.02344
O         -2.46515       -0.71293       -0.27348
C         -1.37460        0.01534        0.24083
C         -0.09947       -0.72628       -0.14611
C          1.18523       -0.01826        0.36097
C          1.37031        1.30645       -0.38908
O          1.16749        2.38836        0.09091
C          2.36771       -0.84671        0.15886
C          3.35117       -1.50537       -0.05043
H         -3.79082        0.89148       -0.40066
H         -4.48357       -0.75338       -0.41656
H         -3.87908       -0.05276        1.10945
H         -1.37097        1.04347       -0.15798
H         -1.44698        0.10167        1.33933
H         -0.12943       -1.73757        0.26873
H         -0.05582       -0.83328       -1.23576
H          1.07172        0.23041        1.42283
H          1.69495        1.17993       -1.44570
H          4.21954       -2.09471       -0.21397
