19

C	0.755555	0.474285	1.22979
C	1.80247	-0.181825	0.316053
C	1.480149	0.941254	-0.730955
C	0.056788	0.692267	-0.155759
C	-1.346698	1.236564	-0.264299
C	-2.151581	-0.019272	0.216794
O	-1.297322	-1.179079	0.099405
C	-0.129865	-0.764846	-0.573368
O	1.093586	-1.352652	-0.165542
H	0.270718	-0.170832	1.963239
H	1.08082	1.418762	1.671226
H	2.810565	-0.457593	0.619288
H	1.91772	1.903265	-0.458584
H	1.655717	0.715903	-1.785948
H	-1.544857	2.111053	0.359491
H	-1.603985	1.49014	-1.298081
H	-2.450375	0.073345	1.266333
H	-3.056471	-0.172377	-0.38176
H	-0.250875	-0.928378	-1.655653
