19
../xyz/dsC7O2H10nsd_0842.xyz
O         -3.25464       -0.04113       -0.66022
C         -2.36463       -0.01438        0.14883
C         -0.88880       -0.00566       -0.16416
C         -0.14983       -1.20469        0.48828
C          1.31431       -0.75830        0.61755
C          2.11548       -0.66993       -0.69676
O          1.94466        0.76229       -0.76238
C          1.29505        0.79259        0.52977
C         -0.16560        1.22424        0.43785
H         -2.58585        0.00563        1.24508
H         -0.77122       -0.01946       -1.25043
H         -0.56563       -1.39132        1.48701
H         -0.26732       -2.12693       -0.08826
H          1.83362       -1.22216        1.45652
H          3.17358       -0.94768       -0.61086
H          1.68378       -1.17860       -1.56815
H          1.87913        1.36768        1.25654
H         -0.54530        1.43142        1.44785
H         -0.29073        2.12884       -0.16259
