19

C	-2.9348	1.184927	-0.367589
C	-2.336033	-0.228355	-0.308153
O	-2.891741	-0.987067	0.765597
C	-0.871823	-0.189009	-0.254752
C	0.331249	-0.131598	-0.180677
C	1.768646	-0.138299	-0.098484
O	2.406996	-1.221851	-0.72423
C	2.441024	0.445064	1.136544
C	2.54042	1.152514	-0.190891
H	-2.582102	1.721031	-1.25329
H	-4.02513	1.115298	-0.399933
H	-2.644969	1.761246	0.517163
H	-2.639652	-0.774793	-1.209507
H	-2.528572	-0.631845	1.584492
H	2.073425	-2.029411	-0.316906
H	1.813305	0.87162	1.91006
H	3.317218	-0.089808	1.484671
H	1.981295	2.068169	-0.338337
H	3.481051	1.08838	-0.725336
