19

C	-1.974987	-0.250048	-1.10316
C	-0.988878	-0.229519	0.052901
O	-1.649303	-0.016263	1.291425
C	0.188097	-1.238825	0.067098
C	1.026329	-0.386292	-0.954096
C	2.271411	-0.400244	-0.043764
C	1.088485	-0.301375	0.939686
C	0.279329	0.635401	-0.045521
O	0.375241	2.003905	-0.189544
H	-2.543867	0.684377	-1.132886
H	-1.471655	-0.378459	-2.064957
H	-2.688777	-1.076409	-0.991408
H	-2.381295	-0.637977	1.357411
H	0.165166	-2.326286	0.116516
H	0.966553	-0.442543	-2.041235
H	2.853151	-1.326974	-0.02299
H	2.931389	0.46926	-0.108319
H	1.087754	-0.249458	2.026952
H	-0.064639	2.408748	0.567005
