19

C	3.75325	-0.289382	3e-06
C	2.279358	-0.652184	-9e-06
O	1.532895	0.558751	3e-06
C	0.183131	0.439584	1e-06
C	-0.678927	1.49446	-3e-06
O	-1.967409	1.032425	-1e-06
C	-1.921701	-0.322873	4e-06
C	-3.223384	-1.04138	-1e-06
C	-0.626414	-0.74869	5e-06
H	4.36484	-1.196407	-1.6e-05
H	4.004125	0.299681	-0.886434
H	4.004122	0.29964	0.886469
H	2.023815	-1.248943	-0.887638
H	2.023806	-1.248966	0.887603
H	-0.543156	2.561128	-2e-06
H	-3.052977	-2.12021	-6.4e-05
H	-3.821876	-0.789009	0.882858
H	-3.821917	-0.788914	-0.882806
H	-0.296545	-1.774609	7e-06
