19

C	-1.994422	-0.144168	0.334398
O	-1.567442	-0.112809	-1.041638
C	-0.163239	-0.333342	-1.035153
C	0.659523	0.91289	-0.617707
C	-0.02556	1.295932	0.720764
C	-0.678183	-0.065996	1.110016
C	0.177096	-1.068831	0.279057
C	1.684102	-0.847723	0.41401
O	1.943432	0.361559	-0.329108
H	-2.656783	0.707528	0.523627
H	-2.551657	-1.071707	0.530628
H	0.143524	-0.789424	-1.976414
H	0.780576	1.712872	-1.3473
H	0.730538	1.634673	1.432776
H	-0.772542	2.086771	0.610556
H	-0.764322	-0.260997	2.179666
H	-0.144882	-2.10839	0.352385
H	2.006562	-0.729851	1.457836
H	2.265161	-1.66404	-0.030101
