19
../xyz/dsC7O2H10nsd_4206.xyz
C         -2.62494       -0.42236       -0.10293
C         -1.12423       -0.38368       -0.42080
C         -0.32580       -1.27502        0.54586
C          1.17334       -1.08813        0.45747
O          1.74989       -0.86465       -0.83397
C          1.74092        0.21976        0.11634
C          0.80525        1.34724       -0.18576
O         -0.19910        1.62458        0.81119
C         -0.60739        1.04418       -0.43337
H         -2.82256       -0.00728        0.89127
H         -3.19886        0.16048       -0.83084
H         -3.00480       -1.44877       -0.12246
H         -0.97086       -0.76414       -1.43888
H         -0.62190       -1.05634        1.57915
H         -0.57839       -2.32590        0.36145
H          1.76463       -1.74626        1.09536
H          2.72752        0.48822        0.49143
H          1.24278        2.23962       -0.63162
H         -1.16680        1.72909       -1.07343
