19
../xyz/dsC7O2H10nsd_2624.xyz
C         -0.56120        1.96707       -0.56273
C         -0.30339        0.78520        0.38920
C         -1.43978       -0.24033        0.25635
O         -2.56969       -0.12681        0.64910
C         -0.85372       -1.44213       -0.49314
O          0.43430       -1.03658       -0.92067
C          0.89523       -0.06630        0.00670
C          2.28945        0.41292       -0.18675
C          1.95544       -0.49125        0.99059
H          0.22676        2.71917       -0.46553
H         -0.58035        1.63065       -1.60375
H         -1.52163        2.43563       -0.33173
H         -0.25944        1.14023        1.42229
H         -0.81324       -2.30457        0.19207
H         -1.45961       -1.71810       -1.36043
H          2.84574       -0.02384       -1.00856
H          2.50830        1.45760        0.00602
H          2.29495       -1.51927        0.93378
H          1.94948       -0.06153        1.98700
