19

C	1.831838	2.122873	-0.072464
O	2.189112	0.755081	-0.037602
C	1.171175	-0.070028	0.43665
C	1.534497	-1.558601	0.450957
O	0.36043	-1.901393	-0.314655
C	0.051894	-0.503097	-0.570781
C	-1.321832	-0.140868	-0.291134
C	-2.456706	0.179208	-0.04345
C	-3.831877	0.552384	0.250781
H	0.985458	2.308078	-0.749403
H	1.561381	2.493037	0.927987
H	2.702298	2.67424	-0.434283
H	0.75368	0.305707	1.38045
H	2.464956	-1.764827	-0.092532
H	1.552528	-2.060983	1.42336
H	0.330871	-0.229596	-1.598624
H	-4.346904	0.920528	-0.643204
H	-4.396576	-0.306576	0.629589
H	-3.877959	1.339663	1.011355
