19
../xyz/dsC7O2H10nsd_2527.xyz
C         -2.99936       -0.31387       -0.08946
C         -1.51826       -0.11855       -0.03140
C         -0.57597       -1.04631       -0.23235
C          0.82586       -0.52779       -0.05262
C          1.51182       -1.04814        1.22269
O          1.63385       -0.80161       -1.18919
C          0.57341        0.99465        0.04933
O          1.43585        1.81894       -0.11674
C         -0.91612        1.23561        0.28111
H         -3.46984       -0.06922        0.87140
H         -3.45429        0.34967       -0.83570
H         -3.25786       -1.34496       -0.34426
H         -0.77106       -2.08554       -0.47408
H          0.90485       -0.86539        2.11533
H          1.68134       -2.12459        1.12996
H          2.47947       -0.55196        1.35161
H          2.30058       -0.10175       -1.21600
H         -1.09317        1.55178        1.31927
H         -1.28595        2.04971       -0.35397
