19

C	-3.066125	0.480891	0.029949
C	-1.775013	-0.0167	0.654941
O	-0.946739	-0.525258	-0.382098
C	0.285554	-1.040622	0.061478
C	0.899648	-1.840354	-1.088762
C	1.271908	0.058303	0.492245
O	2.096628	-0.125574	1.360016
C	1.194038	1.314275	-0.237166
C	1.157036	2.362482	-0.828227
H	-3.574191	-0.330681	-0.498552
H	-3.737356	0.868228	0.80208
H	-2.859988	1.281049	-0.686223
H	-1.267465	0.801782	1.188406
H	-1.976402	-0.811306	1.391428
H	0.153664	-1.689938	0.940578
H	0.214167	-2.639587	-1.381014
H	1.065259	-1.192785	-1.954574
H	1.852998	-2.278376	-0.782884
H	1.127928	3.288624	-1.349342
