19

C	-2.350421	-1.191488	0.374312
C	-1.316952	-0.244098	-0.138411
C	-0.156235	-0.481412	-0.743986
C	1.02992	-1.417141	-0.63408
C	1.789003	-0.156762	-0.040427
O	1.683627	-0.040157	1.354049
C	0.688772	0.745832	-0.740387
O	-0.036116	1.753761	-0.080743
C	-1.36149	1.250983	0.16067
H	-3.323207	-1.024637	-0.106069
H	-2.064275	-2.23046	0.189839
H	-2.507567	-1.061711	1.452764
H	0.928932	-2.282015	0.026518
H	1.457952	-1.733653	-1.590388
H	2.820519	-0.016541	-0.39224
H	2.215923	-0.736253	1.751914
H	1.065401	1.108351	-1.707158
H	-2.085043	1.811891	-0.452744
H	-1.624311	1.420711	1.214969
