18

O	-2.930684	0.298766	-0.353842
C	-1.939161	-0.522077	0.249444
C	-0.615055	-0.269018	-0.459366
C	-0.114567	1.198389	-0.299614
C	1.230757	0.972723	0.462451
O	0.890609	-0.139095	1.304277
C	0.559993	-1.039942	0.23897
C	1.777322	-0.921968	-0.670985
C	2.199286	0.334108	-0.528855
H	-3.746727	0.198525	0.144844
H	-1.820566	-0.290954	1.318731
H	-2.206448	-1.588359	0.163569
H	-0.716936	-0.556547	-1.509117
H	0.019028	1.716724	-1.250881
H	-0.811838	1.778445	0.308503
H	1.59242	1.809973	1.05802
H	0.314204	-2.027038	0.631643
H	2.125348	-1.684661	-1.354081
