19

C	2.989105	-0.774742	0.492242
C	1.517183	-0.842102	0.095386
C	0.934266	0.508373	-0.268297
O	1.574004	1.534514	-0.272283
C	-0.566638	0.561371	-0.619054
O	-1.111145	-0.720683	-0.911489
C	-2.208797	-1.010265	-0.042177
C	-2.296546	0.173976	0.87806
C	-1.375146	1.071216	0.548263
H	3.132249	-0.128227	1.362152
H	3.369993	-1.770728	0.734614
H	3.592964	-0.361299	-0.319681
H	1.349994	-1.512191	-0.757046
H	0.897783	-1.265175	0.89805
H	-0.655254	1.222328	-1.495009
H	-3.126056	-1.151354	-0.634758
H	-2.019005	-1.953582	0.491813
H	-3.026352	0.253409	1.67346
H	-1.179746	2.02921	1.010041
