19
../xyz/dsC7O2H10nsd_5524.xyz
O          2.85685       -0.94819       -0.20117
C          2.14805        0.28066       -0.16755
C          0.66468        0.09278       -0.46070
C         -0.27820        1.32877       -0.29835
C         -0.33781        0.99711        1.22132
C         -0.22941       -0.47798        0.70859
C         -1.55667       -0.59483       -0.03068
O         -2.35025       -1.49554       -0.03283
C         -1.62018        0.75252       -0.79116
H          2.51555       -1.50615        0.50505
H          2.31648        0.81049        0.78088
H          2.59030        0.89584       -0.95946
H          0.58032       -0.44581       -1.41143
H          0.00994        2.31602       -0.65980
H          0.54245        1.31694        1.77791
H         -1.24061        1.27703        1.77158
H          0.05410       -1.31961        1.33924
H         -1.67025        0.59303       -1.87254
H         -2.49387        1.33788       -0.48822
