19

O	-2.966229	-1.132359	0.482586
C	-2.59259	-0.050813	-0.368773
C	-1.148097	0.317275	-0.217692
C	-0.6525	1.506428	0.126221
C	0.851979	1.506433	0.230227
C	1.259682	0.133042	-0.389654
C	-0.048687	-0.711149	-0.391968
C	2.369287	-0.532707	0.386705
O	3.450195	-0.831473	-0.049373
H	-2.822876	-0.843763	1.390176
H	-2.790059	-0.41262	-1.385311
H	-3.228479	0.831946	-0.205673
H	-1.248619	2.387604	0.340975
H	1.327427	2.340677	-0.295965
H	1.168071	1.590244	1.281403
H	1.611937	0.279579	-1.413219
H	-0.152429	-1.29589	-1.312388
H	-0.07439	-1.438903	0.43091
H	2.103246	-0.739275	1.45299
