19
../xyz/dsC7O2H10nsd_2657.xyz
O         -1.88592       -1.68434        0.33960
C         -1.35296       -0.41341        0.57290
C         -1.27115        0.49477       -0.60019
O         -1.64629        1.82293       -0.39224
C          0.02033       -0.04389        0.03170
C          0.97951        0.86777        0.80993
C          2.40540        0.47165        0.32195
C          2.17114       -0.74692       -0.53967
C          0.87379       -1.01630       -0.69444
H         -1.40357       -2.31140        0.88931
H         -1.63481        0.05761        1.51654
H         -1.55918        0.06072       -1.55774
H         -1.14218        2.37289       -1.00165
H          0.75757        1.92450        0.63840
H          0.87955        0.70157        1.88746
H          2.87987        1.27675       -0.25517
H          3.08370        0.26439        1.15832
H          2.98226       -1.30907       -0.98891
H          0.45808       -1.82865       -1.27857
