19

C	-0.090477	2.154722	-0.147793
C	-0.126589	0.659069	-0.065419
C	0.181011	-0.260383	1.122064
C	-0.52274	-1.393351	0.265056
C	0.813106	-1.606	-0.501326
C	1.156565	-0.198215	-0.019554
O	2.406281	0.385276	0.038613
C	-1.249064	-0.272754	-0.528761
O	-2.523574	0.078584	-0.03255
H	0.760577	2.557086	0.409543
H	-0.002496	2.49375	-1.187739
H	-1.007559	2.592811	0.25946
H	0.312259	-0.078309	2.178872
H	-1.090167	-2.234251	0.657775
H	1.450768	-2.350865	-0.016564
H	0.7534	-1.808395	-1.577938
H	2.602385	0.776563	-0.82037
H	-1.389615	-0.43424	-1.603961
H	-2.422082	0.276452	0.906812
