19

C	-1.376333	0.858059	-0.634552
C	-0.375746	1.715087	0.15717
C	0.930962	0.975805	0.507716
O	0.63192	-0.203809	1.264626
C	0.488411	-1.271484	0.336332
C	-1.014761	-1.460677	-0.050952
O	-1.801271	-0.296802	0.070758
C	1.360709	-0.853852	-0.83
C	1.637022	0.44003	-0.718481
H	-2.282246	1.44947	-0.807714
H	-0.967549	0.58539	-1.618106
H	-0.14978	2.621368	-0.421688
H	-0.84759	2.032483	1.093126
H	1.564433	1.616405	1.131918
H	0.8421	-2.193363	0.815008
H	-1.071867	-1.876336	-1.07139
H	-1.479452	-2.181196	0.628937
H	1.649973	-1.526358	-1.627663
H	2.195209	1.059215	-1.408903
