19

O	2.436039	-0.209727	0.616322
C	1.440919	-0.129437	-0.067584
C	0.921807	1.212411	-0.574959
C	-0.345376	1.71864	0.157015
C	-1.460926	0.670845	0.241682
C	-1.183525	-0.541494	1.158268
C	-0.847269	-1.261874	-0.163408
C	0.648928	-1.376834	-0.466327
O	-1.467527	-0.19559	-0.926849
H	1.7263	1.942715	-0.462655
H	0.677799	1.109462	-1.636739
H	-0.092126	2.043978	1.173299
H	-0.709504	2.603154	-0.376215
H	-2.434493	1.152492	0.378053
H	-0.384703	-0.449404	1.897346
H	-2.084485	-0.923302	1.640195
H	-1.345487	-2.218725	-0.348566
H	1.083441	-2.233459	0.057422
H	0.767805	-1.537912	-1.54605
