19
../xyz/dsC7O2H10nsd_3384.xyz
C          1.86670        1.50090        0.45655
C          0.76860        0.76381       -0.33186
C         -0.64434        0.98823        0.22396
C         -1.80629        0.77223       -0.76524
O         -2.06670       -0.55134       -0.25133
C         -1.12440       -0.37068        0.83077
C          0.02055       -1.36491        0.76179
C          1.01477       -0.75689       -0.23539
O          1.87746       -1.35157       -0.82542
H          1.83804        1.24087        1.52069
H          2.85463        1.23769        0.06969
H          1.73703        2.58433        0.37471
H          0.84340        1.05316       -1.38549
H         -0.71939        1.87398        0.85596
H         -2.66373        1.44139       -0.61755
H         -1.54631        0.75581       -1.83093
H         -1.63176       -0.33624        1.80066
H          0.52576       -1.46149        1.73226
H         -0.29729       -2.36236        0.45054
