19

O	1.916493	1.772795	-0.009188
C	1.689696	0.603711	0.055773
C	2.434512	-0.695019	-0.277435
O	1.265281	-1.447471	0.101523
C	0.495722	-0.27111	0.473882
C	-0.794648	-0.104082	-0.298079
C	-1.696774	1.11423	0.052458
C	-2.935065	0.191233	-0.111416
C	-1.994912	-1.036295	0.03613
H	2.712198	-0.828308	-1.330721
H	3.306529	-0.904145	0.356015
H	0.30374	-0.251292	1.557576
H	-0.578895	-0.130191	-1.371461
H	-1.559226	1.425548	1.092948
H	-1.618068	1.997735	-0.58364
H	-3.744803	0.298683	0.613582
H	-3.360119	0.258471	-1.116783
H	-1.946556	-1.388784	1.071456
H	-2.160185	-1.89631	-0.615536
