19

C	-0.61851	1.845426	-0.687362
C	-0.532523	0.457988	-0.057809
C	-0.564483	0.357364	1.48103
O	0.740681	-0.270387	1.516088
C	0.881253	-0.144257	0.107027
C	1.634193	-1.154385	-0.695554
C	2.176876	0.258699	-0.518148
C	-1.47056	-0.502872	-0.760878
O	-2.294513	-1.195164	-0.222505
H	-1.60736	2.288143	-0.526834
H	0.131336	2.510983	-0.251763
H	-0.444535	1.802872	-1.768736
H	-0.566214	1.319753	2.005248
H	-1.345194	-0.295997	1.87882
H	2.113015	-1.950858	-0.136221
H	1.264724	-1.447555	-1.672566
H	3.017124	0.393023	0.154666
H	2.166475	0.926944	-1.373365
H	-1.336189	-0.530672	-1.86774
