19

C	-1.50547	1.524149	-0.48261
C	-1.270144	0.118262	0.037981
C	-2.21281	-0.936704	-0.50916
C	-0.769629	-0.04893	1.446843
C	0.164265	-0.306257	0.290085
C	0.94114	-1.548886	-0.123647
O	2.098575	-0.697868	-0.421688
C	1.420881	0.441645	-0.039334
O	1.824462	1.562059	-0.027947
H	-0.748329	2.219727	-0.113668
H	-1.471324	1.545177	-1.577498
H	-2.492776	1.884489	-0.172352
H	-1.998378	-1.928844	-0.099808
H	-3.249817	-0.689414	-0.256024
H	-2.144488	-0.999341	-1.60094
H	-0.574377	0.839077	2.039535
H	-1.098845	-0.913514	2.014907
H	1.182777	-2.264291	0.666153
H	0.601854	-2.066263	-1.02417
