19
../xyz/dsC7O2H10nsd_0722.xyz
O         -2.81321       -0.67207        0.07166
C         -1.68123       -0.28052       -0.07601
C         -1.31788        1.20253        0.07502
O          0.00958        1.47574       -0.32477
C          0.95080        0.75113        0.44422
C          2.26512        0.46868       -0.31488
C          2.11119       -1.04750        0.00597
C          0.67007       -0.78375        0.53201
C         -0.49024       -1.16830       -0.39684
H         -1.98102        1.79652       -0.56045
H         -1.50736        1.50304        1.11986
H          1.08699        1.22799        1.42587
H          2.15266        0.70165       -1.37583
H          3.16245        0.96399        0.06033
H          2.19105       -1.73338       -0.84099
H          2.78958       -1.39221        0.78960
H          0.47225       -1.15680        1.54049
H         -0.20600       -0.97555       -1.43996
H         -0.77860       -2.21821       -0.31106
