19
../xyz/dsC7O2H10nsd_3184.xyz
C          1.68571        1.77249       -0.08678
C          0.59975        0.72802       -0.33425
C         -0.68394        0.96782        0.46738
C         -2.01860        1.11854       -0.23368
C         -1.66721       -0.17422        0.43412
O         -1.29589       -1.23002       -0.40936
C         -0.03058       -1.75447       -0.04351
C          1.07510       -0.69193       -0.02372
O          2.21801       -0.98721        0.23054
H          1.32972        2.76904       -0.36348
H          1.97497        1.78994        0.96850
H          2.58278        1.54445       -0.66631
H          0.33851        0.72006       -1.40192
H         -0.54568        1.49377        1.40709
H         -2.77528        1.74097        0.23063
H         -2.02091        1.12400       -1.31844
H         -2.19299       -0.47849        1.33867
H         -0.05794       -2.24549        0.94186
H          0.22856       -2.51793       -0.78343
