19
../xyz/dsC7O2H10nsd_5612.xyz
C         -2.85584        0.37025       -0.25492
O         -1.88125       -0.64401       -0.36697
C         -0.70550       -0.40376        0.38185
C          0.10755       -1.67686        0.39904
C          1.39119       -1.48454        0.08433
C          1.63084       -0.05393       -0.22065
O          2.69462        0.48137       -0.42818
C          0.26163        0.65721       -0.20393
C          0.33433        2.01096        0.50316
H         -2.52611        1.31764       -0.70529
H         -3.74380        0.02213       -0.78776
H         -3.12239        0.56103        0.79641
H         -0.98551       -0.12802        1.41502
H         -0.35959       -2.62134        0.65443
H          2.17920       -2.22640        0.05712
H         -0.02303        0.79836       -1.25479
H          1.15966        2.59659        0.08995
H         -0.59216        2.58026        0.38759
H          0.52155        1.88489        1.57517
