19

O	-2.635133	0.714331	-0.421791
C	-1.864877	-0.434826	-0.209494
C	-1.242549	-0.68773	1.140989
C	-0.393936	-0.223414	-0.025201
C	0.63448	-1.164477	-0.668255
C	1.949942	-0.428716	-0.504546
O	2.189531	0.026445	0.833274
C	1.685741	0.965794	-0.128266
C	0.191719	1.195618	-0.027844
H	-3.471458	0.602471	0.041924
H	-2.17665	-1.303501	-0.792143
H	-1.445861	0.037604	1.922602
H	-1.142595	-1.712948	1.483959
H	0.648672	-2.154211	-0.200258
H	0.434808	-1.307599	-1.738847
H	2.832832	-0.737379	-1.059176
H	2.359029	1.782488	-0.377168
H	-0.084496	1.767565	0.862227
H	-0.152586	1.765815	-0.899278
