19
../xyz/dsC7O2H10nsd_3204.xyz
O         -3.07795       -0.13813       -0.21539
C         -1.68539       -0.15480       -0.35421
C         -0.85573        0.98005        0.18092
C          0.52183        1.29794       -0.40080
C          1.42670        0.08751       -0.11150
O          2.77617        0.33081        0.14831
C          1.13008       -1.22277       -0.76392
C          0.60450       -0.94956        0.64012
C         -0.79459       -0.41052        0.83332
H         -3.29747        0.23043        0.64631
H         -1.43832       -0.59596       -1.31332
H         -1.40190        1.78855        0.65866
H          0.49375        1.54808       -1.46727
H          0.94488        2.16825        0.11509
H          2.83401        0.86168        0.95105
H          0.45655       -1.28008       -1.61113
H          1.97185       -1.90427       -0.82015
H          1.04478       -1.52355        1.44739
H         -1.27832       -0.60170        1.78642
