19

C	-2.067452	-0.071156	0.169278
C	-1.288505	-1.392617	0.454623
C	-0.039821	-0.682104	-0.065145
O	1.05695	-1.333054	-0.705615
C	2.011371	-0.45034	-0.063826
C	0.894043	0.171265	0.815573
O	0.567557	1.533291	0.680877
C	-0.204137	1.715935	-0.516308
C	-0.910476	0.388531	-0.771899
H	-3.053144	-0.172216	-0.286698
H	-2.148891	0.563853	1.055052
H	-1.266504	-1.782803	1.475456
H	-1.595258	-2.192163	-0.226005
H	2.79054	-1.01211	0.461824
H	2.474534	0.250302	-0.768788
H	0.968748	-0.059196	1.880215
H	-0.877227	2.560652	-0.339802
H	0.45275	1.971409	-1.360884
H	-1.111747	0.193296	-1.826237
