19

O	1.827132	-1.39625	-0.513612
C	0.887826	-0.371744	-0.674344
C	1.192891	0.960464	0.034746
C	-0.035559	1.825262	-0.413879
C	-1.115889	0.807813	0.050493
C	-2.042137	-0.300289	-0.570467
C	-1.37684	-1.314493	0.455216
C	-0.206789	-0.330878	0.426884
O	0.806641	0.278215	1.3066
H	2.063468	-1.389259	0.423947
H	0.600599	-0.351651	-1.728316
H	2.18615	1.406192	0.08053
H	-0.111391	2.778839	0.111477
H	0.013981	2.025884	-1.488142
H	-1.617874	1.178999	0.948292
H	-3.117576	-0.147149	-0.473988
H	-1.805863	-0.556544	-1.604749
H	-1.921249	-1.318844	1.402862
H	-1.181454	-2.338993	0.132295
