19
../xyz/dsC7O2H10nsd_5085.xyz
C          3.06024       -0.72793        0.21188
C          1.86772       -0.54659       -0.73800
C          0.71100        0.13703       -0.07980
C         -0.24122       -0.40493        1.00430
C         -1.34617        0.56307        0.47633
C         -2.54662       -0.10321       -0.14615
O         -2.66848       -1.28895       -0.32588
C         -0.31915        1.06067       -0.58284
O          0.80193        1.56263        0.13954
H          3.89121       -1.22325       -0.29817
H          3.41266        0.24050        0.57871
H          2.78851       -1.33873        1.07902
H          2.16890        0.04515       -1.60950
H          1.53268       -1.52227       -1.11055
H         -0.53245       -1.44460        0.84124
H          0.08482       -0.25349        2.03492
H         -1.67719        1.36475        1.14437
H         -3.34175        0.60478       -0.47395
H         -0.50975        1.46907       -1.56972
