19
../xyz/dsC7O2H10nsd_1867.xyz
C         -2.37217       -0.80166       -0.65611
C         -1.14618       -0.40908        0.09660
C         -1.06337        0.48886        1.31265
C         -0.20007        0.78080        0.11458
O         -0.19483        2.02237       -0.48335
C          0.89779       -0.25071        0.03869
C          2.26145       -0.31334        0.63130
C          2.07234       -0.28099       -0.88297
O         -0.03932       -1.33719        0.11209
H         -2.88056       -1.63971       -0.16577
H         -3.07272        0.03720       -0.70100
H         -2.12324       -1.10739       -1.67735
H         -1.89802        1.17619        1.41676
H         -0.63398        0.12640        2.24300
H         -0.02500        1.89958       -1.42483
H          2.65433        0.56975        1.12444
H          2.56552       -1.25729        1.07014
H          2.33772        0.62962       -1.41170
H          2.25041       -1.19906       -1.43202
