19

C	2.880865	-0.321324	-0.803376
C	1.655355	0.137183	-0.012483
O	1.744224	-0.254369	1.355822
C	0.367024	-0.485966	-0.548698
C	-0.896793	-0.005827	0.218735
C	-2.102462	-0.794377	-0.302002
O	-2.486319	-1.821772	0.18735
C	-1.129305	1.425496	0.069336
C	-1.359215	2.595102	-0.089702
H	2.808678	-0.021565	-1.854023
H	3.793236	0.125763	-0.393021
H	2.984272	-1.409826	-0.754637
H	1.565989	1.232165	-0.085688
H	2.498148	0.195224	1.749197
H	0.265948	-0.250317	-1.613425
H	0.430533	-1.574671	-0.445302
H	-0.760327	-0.266538	1.272508
H	-2.585288	-0.354522	-1.202659
H	-1.55725	3.631698	-0.209182
