19
../xyz/dsC7O2H10nsd_3830.xyz
C          1.73365       -1.78369        0.28931
C          0.77342       -0.86670       -0.45931
C         -0.68471       -1.37551       -0.73275
C         -1.26320       -0.17303       -0.00121
O         -2.37073        0.46753       -0.49991
C         -0.75654       -0.04195        1.37684
C          0.21731        0.35995        0.27007
C          0.72249        1.72068        0.13753
O          1.70321        2.02948       -0.50450
H          2.67047       -1.26228        0.50899
H          1.31369       -2.13510        1.23825
H          1.97339       -2.66782       -0.31104
H          1.23825       -0.53515       -1.39088
H         -0.94112       -1.36303       -1.79362
H         -0.95626       -2.35028       -0.31226
H         -2.84067        0.90359        0.21762
H         -1.14717        0.80802        1.93459
H         -0.53925       -0.90827        1.99873
H          0.11428        2.49574        0.66209
