19

C	1.584031	-1.198249	-1.022816
C	0.843958	-0.420489	0.030949
C	0.033372	-1.13835	1.14679
C	-1.113959	-0.109509	0.939267
C	-2.114599	-0.363917	-0.219261
O	-1.352857	0.475507	-1.140875
C	-0.322858	0.592326	-0.184029
C	0.686368	1.695061	0.043202
O	1.617739	0.704535	0.559631
H	2.437993	-1.723479	-0.579691
H	0.929053	-1.943863	-1.484723
H	1.96233	-0.535967	-1.806994
H	-0.231686	-2.178289	0.930651
H	0.516576	-1.088401	2.125033
H	-1.516602	0.416692	1.804574
H	-2.1795	-1.399446	-0.574466
H	-3.12286	0.035535	-0.073404
H	1.061776	2.166357	-0.875847
H	0.445985	2.469284	0.780211
