19

C	-2.254621	-0.151672	0.003486
O	-1.370673	-1.049672	-0.72525
C	-0.234229	-0.484347	-0.078615
C	0.926799	-1.36698	0.318135
O	1.995505	-0.456036	0.540466
C	1.906703	0.566452	-0.461571
C	0.415982	0.79489	-0.716884
C	-0.380544	1.676173	0.296315
C	-1.089202	0.414982	0.847589
H	-2.751225	0.564526	-0.663488
H	-3.012933	-0.7149	0.557575
H	0.770496	-1.932966	1.240189
H	1.147408	-2.075447	-0.49924
H	2.440333	1.440909	-0.077892
H	2.404457	0.23301	-1.385618
H	0.181906	0.960902	-1.769346
H	0.263415	2.153629	1.040455
H	-1.029279	2.439685	-0.142027
H	-1.158555	0.279318	1.926926
