19

C	3.941485	0.573917	-0.527047
C	3.083303	0.178264	0.688475
C	1.778782	-0.360272	0.317908
C	0.705756	-0.794507	-0.011979
C	-0.586262	-1.347475	-0.392124
C	-1.805241	-0.491705	-0.047711
O	-2.864793	-0.945469	0.300609
O	-1.566723	0.816284	-0.227797
C	-2.67836	1.682019	0.037226
H	4.125968	-0.290821	-1.17021
H	3.43757	1.337576	-1.125582
H	4.906401	0.972414	-0.199614
H	3.623769	-0.560802	1.293873
H	2.942646	1.052214	1.337498
H	-0.622028	-1.511247	-1.478822
H	-0.757898	-2.323754	0.070698
H	-3.515986	1.44738	-0.62453
H	-3.009304	1.576038	1.07324
H	-2.315787	2.69303	-0.14753
