19

C	2.045715	1.02431	-0.193224
C	1.254474	-0.063504	0.531538
O	1.077984	-1.229475	-0.275547
C	-0.086036	-1.275088	-1.083674
C	-1.305704	-0.660252	-0.349717
C	-1.06576	-0.808056	1.18647
C	-0.120925	0.43018	1.064543
C	-0.982002	0.820346	-0.141559
O	-1.329094	1.849076	-0.648072
H	2.244335	1.86498	0.479803
H	3.002416	0.621923	-0.536188
H	1.49933	1.412668	-1.057604
H	1.838566	-0.417708	1.390085
H	0.065628	-0.763973	-2.046582
H	-0.263585	-2.335711	-1.290316
H	-2.249875	-0.950114	-0.813322
H	-1.962518	-0.592975	1.769571
H	-0.602868	-1.738301	1.518234
H	-0.001127	1.134785	1.889016
