19

C	-1.251373	1.102836	0.40721
C	-1.258669	-0.426298	0.546992
C	0.0	-0.928717	1.297586
C	1.258669	-0.426298	0.546992
C	1.251373	1.102836	0.40721
C	0.0	1.24852	-0.482359
C	0.0	-0.128042	-1.268452
O	-1.153251	-0.820978	-0.830659
O	1.153252	-0.820978	-0.830658
H	-2.162803	1.425348	-0.102727
H	-1.166459	1.643491	1.353472
H	-2.179882	-0.849944	0.951511
H	0.0	-0.575559	2.335311
H	1e-06	-2.022526	1.309534
H	2.179881	-0.849944	0.951513
H	1.166459	1.643494	1.35347
H	2.162804	1.425346	-0.102728
H	0.0	2.122667	-1.132619
H	1e-06	-0.095743	-2.357268
