19

C	-4.086447	1.057299	-0.135381
C	-3.54156	-0.382221	-0.171123
C	-2.118065	-0.464789	0.140534
C	-0.946156	-0.505968	0.416173
C	0.48146	-0.566629	0.703844
C	1.311006	-0.566694	-0.58823
O	2.714914	-0.73526	-0.299757
C	3.397785	0.375171	0.013676
O	2.953187	1.48784	0.087545
H	-3.951876	1.499035	0.855624
H	-3.563711	1.688678	-0.858897
H	-5.15372	1.067175	-0.375931
H	-4.10428	-1.005013	0.53624
H	-3.72238	-0.817828	-1.162315
H	0.784998	0.291721	1.313671
H	0.720683	-1.470415	1.277792
H	1.04635	-1.41621	-1.219275
H	1.161913	0.364306	-1.137967
H	4.449073	0.100901	0.191805
