19
../xyz/dsC7O2H10nsd_1884.xyz
C          1.47154       -1.51955       -0.63126
C          0.51699       -0.68797        0.18906
C          1.00445        0.14576        1.35778
C          0.48852        0.81200        0.08981
O          1.44388        1.39027       -0.76630
C         -0.85531        1.44954        0.04076
C         -1.93904        0.71213       -0.18188
C         -1.82299       -0.78638       -0.31065
O         -0.72406       -1.31868        0.41291
H          1.67834       -2.46565       -0.12123
H          1.03742       -1.74910       -1.61034
H          2.40992       -0.98706       -0.79438
H          0.37604        0.16378        2.24059
H          2.07514        0.19576        1.53014
H          1.78913        2.17789       -0.33171
H         -0.90546        2.53052        0.14724
H         -2.92613        1.15473       -0.27833
H         -2.70955       -1.27957        0.10096
H         -1.76838       -1.06716       -1.37756
