19

O	-3.134959	-0.541367	-0.095459
C	-2.076689	-0.025584	-0.348744
C	-0.811531	-0.209068	0.460849
C	-0.228516	1.164041	0.90677
C	0.674645	1.615737	-0.257723
C	1.277207	0.320477	-0.785871
O	2.300084	-0.214137	0.089392
C	1.513314	-1.388799	0.374624
C	0.306331	-0.834655	-0.408939
H	-1.971303	0.644711	-1.235283
H	-1.068599	-0.846896	1.311307
H	-1.007243	1.891092	1.154524
H	0.372861	1.015799	1.808137
H	0.085995	2.089866	-1.052565
H	1.447066	2.325875	0.050169
H	1.631557	0.379619	-1.820668
H	1.960825	-2.293138	-0.056699
H	1.369552	-1.54052	1.451644
H	-0.07027	-1.475277	-1.207815
