19
../xyz/dsC7O2H10nsd_3601.xyz
C          2.79727       -0.51678       -0.36109
C          1.51322       -0.12882        0.36951
O          0.49654       -1.00180       -0.08534
C         -0.80883       -0.69706        0.39105
C         -1.76459       -1.75492       -0.13349
C         -1.22029        0.72469       -0.01918
O         -2.38025        1.03687       -0.19692
C         -0.11219        1.69648       -0.09268
C          1.14604        1.31438        0.14971
H          2.68325       -0.35756       -1.43688
H          3.64121        0.07960       -0.00269
H          3.01495       -1.57324       -0.18749
H          1.66840       -0.27737        1.45751
H         -0.80997       -0.71212        1.49850
H         -1.72118       -1.79065       -1.22558
H         -1.49503       -2.73785        0.25962
H         -2.78518       -1.50820        0.16327
H         -0.38566        2.72885       -0.28662
H          1.95511        2.04022        0.19557
