19
../xyz/dsC7O2H10nsd_0129.xyz
C         -2.27653        0.02441       -0.19755
C         -1.04398        0.76417       -0.64208
C         -1.04971       -0.75039       -0.60628
C         -0.06874       -1.08923        0.51063
O         -0.12403        0.03908        1.36819
C         -0.05886        1.15198        0.45700
C          1.38616        1.19802       -0.06236
C          1.73100       -0.15290       -0.72176
O          1.24086       -1.27445        0.01842
H         -2.55013        0.04775        0.85150
H         -3.11055        0.00913       -0.89051
H         -1.04023        1.31479       -1.57525
H         -1.04755       -1.35842       -1.50222
H         -0.29890       -1.97689        1.10303
H         -0.33121        2.05061        1.01709
H          1.53503        2.00901       -0.78448
H          2.04405        1.38119        0.79268
H          1.33514       -0.17965       -1.74625
H          2.81371       -0.29084       -0.78404
