19

C	3.559283	0.446169	-0.232173
C	2.239055	-0.099212	0.046288
C	1.142295	-0.542174	0.271831
C	-0.183504	-1.109035	0.538889
C	-1.136898	-0.135342	1.264184
C	-1.748876	0.676713	0.10437
O	-1.049712	1.880558	-0.178538
C	-1.562643	-0.259759	-1.111635
O	-0.897098	-1.434321	-0.65583
H	4.200903	0.403445	0.655037
H	4.060479	-0.114326	-1.029039
H	3.49904	1.49329	-0.548739
H	-0.069488	-2.049001	1.089032
H	-1.914596	-0.715587	1.769921
H	-0.636731	0.499958	1.99823
H	-2.810263	0.889797	0.289773
H	-1.132976	2.4604	0.584959
H	-2.507774	-0.575253	-1.561935
H	-0.966381	0.273232	-1.862814
