19
../xyz/dsC7O2H10nsd_2044.xyz
C         -1.26676        1.89162       -0.00260
C         -0.96665        0.42567        0.10407
C         -1.85232       -0.57442        0.83582
C         -1.50928       -0.79146       -0.60451
O         -0.21537       -1.39879       -0.71261
C          0.39529       -0.24194       -0.10147
C          1.44618       -0.44850        1.00164
O          2.40912        0.34855        0.27928
C          1.54395        0.43555       -0.87141
H         -0.83076        2.33213       -0.90540
H         -2.34695        2.06339       -0.03923
H         -0.87663        2.44318        0.86104
H         -1.44739       -1.24975        1.58496
H         -2.85668       -0.21294        1.03708
H         -2.20529       -0.92836       -1.42359
H          1.21382       -0.03105        1.98879
H          1.76344       -1.49370        1.10680
H          1.39484        1.47084       -1.19878
H          1.89910       -0.17088       -1.71428
