19

C	0.009708	2.176567	-0.466058
C	-0.375034	0.770834	-0.09567
O	-1.029059	0.59133	1.176273
C	-1.750127	0.255509	-0.020843
C	-1.770675	-1.226359	-0.319984
C	-0.298344	-1.661258	-0.125809
C	0.560492	-0.401084	-0.42578
C	1.82535	-0.362767	0.4027
O	2.941076	-0.267279	-0.041016
H	0.186861	2.257731	-1.543585
H	-0.782025	2.875146	-0.185324
H	0.929792	2.47943	0.044936
H	-2.61279	0.883449	-0.231735
H	-2.45601	-1.78163	0.327511
H	-2.101165	-1.375758	-1.355043
H	-0.141339	-1.966811	0.912336
H	-0.016507	-2.503431	-0.760849
H	0.846777	-0.344057	-1.481378
H	1.64206	-0.425123	1.499737
