19
../xyz/dsC7O2H10nsd_1606.xyz
C          0.27658        1.68909       -0.73422
C         -0.12123        0.42387        0.01111
C          0.97943       -0.08952        0.97560
C          2.25763       -0.36082        0.33449
C          3.31453       -0.58369       -0.19251
O         -1.28160        0.65172        0.81644
C         -2.34995       -0.13065        0.29956
C         -1.62068       -1.24401       -0.44840
O         -0.47033       -0.57175       -0.93761
H         -0.55124        2.01171       -1.36946
H          0.51162        2.48558       -0.02339
H          1.15364        1.50023       -1.35660
H          1.10162        0.65665        1.76931
H          0.59888       -0.99621        1.45898
H          4.24641       -0.78447       -0.65983
H         -2.96459       -0.48347        1.13231
H         -2.97657        0.46287       -0.38130
H         -1.34923       -2.07007        0.22557
H         -2.17284       -1.64815       -1.29991
