19
../xyz/dsC7O2H10nsd_0459.xyz
C         -2.69676        0.75231        0.21380
C         -2.69686       -0.75220        0.21398
C         -1.56978       -0.00010       -0.44711
C         -0.21644       -0.00007        0.19408
O          0.53360       -1.14671       -0.20120
C          1.86921       -0.74524       -0.35585
C          2.53222        0.00003        0.78872
C          1.86916        0.74530       -0.35581
O          0.53351        1.14667       -0.20114
H         -3.39801        1.27382       -0.42702
H         -2.48501        1.26248        1.14762
H         -2.48519       -1.26217        1.14794
H         -3.39819       -1.27377       -0.42670
H         -1.52991       -0.00025       -1.53133
H         -0.31754       -0.00010        1.29408
H          2.42284       -1.38284       -1.03308
H          2.06947       -0.00001        1.76930
H          3.61743        0.00005        0.80005
H          2.42274        1.38298       -1.03301
