19
../xyz/dsC7O2H10nsd_3436.xyz
C          2.86879        0.11537       -0.37272
C          1.39901        0.15218       -0.09595
C          0.71448        1.14418        0.49706
C         -0.76172        0.85608        0.57578
O         -1.54923        1.72551       -0.25809
C         -0.88026       -0.59199        0.07127
O         -2.06377       -0.91815       -0.57098
C         -0.14993       -1.66337        0.79926
C          0.50433       -0.99872       -0.42026
H          3.34458       -0.72215        0.15206
H          3.06042       -0.04050       -1.44168
H          3.36371        1.04100       -0.06738
H          1.14427        2.06322        0.87972
H         -1.18149        0.97288        1.58066
H         -0.99601        1.95380       -1.01454
H         -2.40148       -0.07343       -0.90387
H          0.27538       -1.47075        1.77993
H         -0.53653       -2.66675        0.65058
H          0.66289       -1.59858       -1.30956
