19
../xyz/dsC7O2H10nsd_2433.xyz
O          1.92674       -1.07626       -0.31370
C          0.84947       -0.23286       -0.00071
C          1.15078        1.27630       -0.00487
C         -0.26909        1.91416        0.04827
C         -1.18423        0.75150       -0.35715
C         -1.35930       -0.44223        0.64046
C          0.03233       -0.57687        1.28831
O         -1.23036       -1.37120       -0.47730
C         -0.33858       -0.36479       -1.00904
H          2.59640       -0.98145        0.37150
H          1.79250        1.57617        0.83053
H          1.66989        1.54276       -0.93239
H         -0.51528        2.29937        1.04323
H         -0.35986        2.75334       -0.64657
H         -2.10800        0.99934       -0.87795
H         -2.25225       -0.59639        1.24734
H          0.21954        0.10648        2.12198
H          0.20189       -1.60733        1.60707
H         -0.10410       -0.46387       -2.06841
