19
../xyz/dsC7O2H10nsd_2955.xyz
C          1.86237       -1.64593       -0.25123
C          0.46289       -1.11032        0.02206
C          0.19451       -0.02677        1.10109
O         -1.26927       -0.02684        1.12121
C         -1.56977        0.00103       -0.22760
O         -2.67945        0.00852       -0.66563
C         -0.19198        0.01995       -0.87451
C          0.45703        1.10928        0.07076
C          1.84231        1.66674       -0.23075
H          2.65039       -0.89541       -0.25966
H          2.12179       -2.38069        0.51892
H          1.88360       -2.16557       -1.21495
H         -0.19875       -1.97276        0.15472
H          0.57079       -0.04932        2.12299
H         -0.15705        0.04607       -1.96111
H         -0.20549        1.95948        0.26421
H          1.75469        2.45212       -0.98881
H          2.26706        2.12979        0.66699
H          2.55864        0.93898       -0.60688
