19

C	2.515947	-0.789973	-0.963242
C	1.276707	-1.07146	-0.157241
O	1.300013	-0.720392	1.225952
C	0.371812	-0.019441	0.373027
C	-1.091803	-0.335815	0.63072
C	-1.995227	-0.013057	-0.555752
O	-3.318675	-0.362911	-0.182586
C	0.680488	1.37352	0.14015
C	0.887075	2.542637	-0.051747
H	2.306051	-0.896792	-2.032856
H	2.883194	0.220838	-0.775955
H	3.303826	-1.503834	-0.701746
H	0.804742	-2.037563	-0.352114
H	-1.176721	-1.398959	0.874615
H	-1.437961	0.227938	1.503613
H	-1.914769	1.055634	-0.803331
H	-1.664491	-0.581302	-1.440748
H	-3.908982	-0.111456	-0.898627
H	1.084417	3.57346	-0.215271
