19

C	1.566483	-1.078962	-0.989874
C	0.494928	-0.638265	-0.017139
O	1.061122	-0.328747	1.296645
C	0.404179	0.952573	1.33568
C	-0.131349	0.79964	-0.108625
O	0.355628	1.706469	-1.062945
C	-1.645887	0.626611	-0.282516
C	-1.853547	-0.851345	-0.051796
C	-0.714098	-1.531654	0.080312
H	2.02511	-2.011791	-0.645702
H	1.143009	-1.246896	-1.98443
H	2.359737	-0.329095	-1.07028
H	-0.36247	1.006758	2.119227
H	1.115186	1.777761	1.477036
H	1.302038	1.820436	-0.924932
H	-2.221987	1.247548	0.414215
H	-1.940104	0.932044	-1.294238
H	-2.84499	-1.290058	-0.006885
H	-0.633774	-2.600081	0.250134
