19
../xyz/dsC7O2H10nsd_2365.xyz
C         -0.73096       -1.55614       -0.81372
C         -0.48449       -0.29946       -0.00652
C         -1.73316        0.41114        0.40708
O         -2.84375        0.04002        0.11467
C          0.59246       -0.15184        1.09131
C          1.85642       -0.92451        0.70472
C          1.95868       -0.08228       -0.60927
C          0.67530        0.65155       -0.20495
O          0.40966        1.97614       -0.50056
H         -1.27822       -1.31415       -1.72909
H          0.19506       -2.06137       -1.09301
H         -1.34781       -2.25778       -0.24522
H         -1.57464        1.31646        1.02972
H          0.31111        0.14645        2.09462
H          2.68772       -0.73492        1.38701
H          1.74735       -2.00532        0.58398
H          2.82263        0.58910       -0.58970
H          1.95234       -0.60959       -1.56713
H          1.15166        2.51099       -0.19590
