19

C	-2.518964	-0.279466	0.428571
O	-2.189095	0.53657	-0.69589
C	-1.312837	-0.547038	-0.369427
C	0.060576	-0.203879	0.108647
C	0.289298	1.123989	0.885434
C	1.479043	1.479939	-0.061113
C	1.277469	0.14649	-0.811076
O	2.056854	-0.933478	-0.257585
C	0.96016	-1.36784	0.5746
H	-2.421961	0.205412	1.398799
H	-3.39768	-0.911037	0.308205
H	-1.356704	-1.374207	-1.081302
H	-0.553559	1.809644	0.782224
H	0.529594	1.007983	1.945507
H	1.289578	2.362061	-0.677951
H	2.462894	1.571598	0.403334
H	1.27351	0.140443	-1.904581
H	0.605206	-2.365055	0.278679
H	1.218572	-1.384748	1.641065
