19

O	2.997794	-0.48966	0.076277
C	1.965611	0.107453	-0.108887
C	0.606343	-0.537846	-0.054234
C	-0.327928	-0.087131	1.111713
C	-1.600603	-0.906848	0.792698
C	-1.67488	-0.825547	-0.766547
C	-0.403286	-0.024535	-1.10652
O	-0.600931	1.344856	-0.729873
C	-0.604644	1.371591	0.710834
H	1.967474	1.193316	-0.345004
H	0.737389	-1.622715	-0.065969
H	0.064007	-0.211498	2.121456
H	-1.493789	-1.939414	1.136309
H	-2.483768	-0.48609	1.281457
H	-1.663052	-1.814987	-1.232822
H	-2.558284	-0.292894	-1.12571
H	-0.096073	-0.043162	-2.152796
H	0.164835	2.07033	1.060795
H	-1.577324	1.722725	1.076713
