19

O	-0.140506	1.763494	-0.874101
C	0.035149	1.101988	0.374904
C	-1.300352	0.658268	1.018395
C	-1.573987	-0.745479	0.483764
C	-1.443385	-0.973565	-0.999064
C	-0.280124	-1.292644	-0.085437
C	0.757677	-0.223516	0.097609
C	2.082734	-0.51157	0.664234
O	1.922407	-0.190883	-0.719383
H	-0.652082	2.562324	-0.710777
H	0.620702	1.738151	1.052119
H	-1.187456	0.620225	2.10846
H	-2.102158	1.373709	0.799566
H	-2.242732	-1.384314	1.049543
H	-1.973361	-1.82524	-1.411849
H	-1.360467	-0.118126	-1.657473
H	0.01883	-2.325597	0.049122
H	2.595399	0.240204	1.264148
H	2.361831	-1.543118	0.878585
