19

O	2.399785	0.158905	0.344921
C	1.677105	-1.01553	-0.053011
C	0.227258	-0.647822	-0.068774
C	-0.899042	-1.20552	-0.937716
C	-1.693496	0.078164	-0.55762
C	-1.95818	-0.085957	0.966445
C	-0.450801	0.067851	1.150253
C	-0.308151	0.752675	-0.188502
O	0.257447	1.922977	-0.622846
H	3.334201	-0.05972	0.403629
H	1.98754	-1.337062	-1.060002
H	1.88911	-1.845733	0.63909
H	-0.613774	-1.211076	-1.994477
H	-1.352886	-2.168786	-0.674049
H	-2.453388	0.48264	-1.221931
H	-2.498084	0.769358	1.382134
H	-2.44233	-1.016992	1.284149
H	0.117396	0.238885	2.055287
H	1.206209	1.830261	-0.4569
