19
../xyz/dsC7O2H10nsd_4500.xyz
C         -0.32497        2.06721        0.20258
C          0.20492        0.88099       -0.60037
O          1.62947        0.74368       -0.45506
C          1.89875       -0.11696        0.64421
C          0.77998       -1.14412        0.63799
C          0.41385       -1.69116       -0.69447
C         -0.34595       -0.47554       -0.15779
C         -1.75861       -0.70642        0.19962
O         -2.66000        0.09126        0.09732
H         -1.39183        2.20470        0.02027
H         -0.18175        1.91641        1.27758
H          0.21684        2.96958       -0.09306
H          0.03377        1.05493       -1.66861
H          2.89123       -0.55036        0.48251
H          1.91130        0.42705        1.60100
H          0.56629       -1.70696        1.53948
H          1.07638       -1.51076       -1.53402
H         -0.13139       -2.62850       -0.72676
H         -1.95443       -1.73960        0.57289
