19
../xyz/dsC7O2H10nsd_4194.xyz
C          2.77720        0.28629        0.07069
C          1.31364        0.18245       -0.32709
C          0.40389        1.14476        0.45709
C         -1.03950        1.00001       -0.00571
O         -1.76832        1.95282       -0.17409
C         -1.46776       -0.38925       -0.33723
C         -1.39975       -1.51372        0.70136
C         -0.40886       -1.47658       -0.41179
O          0.90847       -1.16318       -0.07108
H          2.89896        0.06860        1.13619
H          3.37685       -0.43009       -0.49690
H          3.15563        1.29337       -0.12606
H          1.21073        0.39414       -1.40369
H          0.48539        0.90016        1.52416
H          0.69803        2.18929        0.32573
H         -2.30152       -0.43045       -1.02879
H         -1.02398       -1.26990        1.68829
H         -2.20647       -2.23720        0.67969
H         -0.48800       -2.19883       -1.22115
