19
../xyz/dsC7O2H10nsd_2861.xyz
C         -2.65222       -0.63685       -0.01466
C         -1.16807       -0.71923       -0.30789
C         -0.20719       -0.51338        0.86148
C          1.30266       -0.76429        0.71265
C          1.55756       -0.93516       -0.80025
C          1.11207        0.54004       -0.72379
O          1.82256        0.61776        0.56884
C         -0.35289        0.53616       -0.23576
O         -0.98439        1.76246       -0.08000
H         -3.21277       -0.39312       -0.92284
H         -3.02363       -1.59387        0.36597
H         -2.86824        0.13971        0.72224
H         -0.91825       -1.45723       -1.06364
H         -0.62334       -0.35285        1.84939
H          1.81758       -1.34268        1.47897
H          2.62475       -1.00222       -1.00963
H          0.99941       -1.66546       -1.38637
H          1.40316        1.30823       -1.44001
H         -0.45553        2.27390        0.54450
