19
../xyz/dsC7O2H10nsd_0716.xyz
O         -2.53803       -0.38509       -0.01529
C         -1.35955       -0.12183       -0.00462
C         -0.84529        1.23184       -0.51213
O          0.37458        1.67872        0.06038
C          1.31537        0.65680        0.39081
C          1.67721       -0.23824       -0.81633
C          0.65265       -1.40881       -0.77238
C         -0.27394       -1.08740        0.43737
C          0.67639       -0.32294        1.38400
H         -0.75532        1.14258       -1.60973
H         -1.60357        1.99261       -0.31272
H          2.17480        1.19663        0.79331
H          1.63771        0.33504       -1.74587
H          2.70104       -0.60788       -0.71191
H          0.09226       -1.52064       -1.70476
H          1.15456       -2.36296       -0.58819
H         -0.74434       -1.97379        0.86582
H          0.17002        0.19481        2.20288
H          1.42350       -1.00209        1.81011
