19
../xyz/dsC7O2H10nsd_1903.xyz
C         -0.58428        2.19539       -0.39885
C         -0.66859        0.74753        0.00724
C         -1.84417       -0.10056       -0.46342
C         -1.47978       -1.54491       -0.05727
C          0.06447       -1.59878       -0.08336
C          0.48266       -0.17770        0.23450
O         -0.24224        0.42064        1.33075
C          1.89598        0.25920        0.09405
O          2.73709       -0.37700       -0.49265
H          0.30242        2.67916        0.01497
H         -0.56242        2.29172       -1.48896
H         -1.46462        2.73578       -0.03402
H         -2.78977        0.23912       -0.02796
H         -1.93084        0.00177       -1.55211
H         -1.83311       -1.73693        0.95798
H         -1.93552       -2.29097       -0.71191
H          0.47673       -2.32130        0.62660
H          0.45561       -1.85717       -1.07302
H          2.12499        1.22869        0.58625
