19

C	1.694492	1.874668	-0.141077
C	1.156689	0.779666	0.788071
C	0.757645	-0.49902	0.065257
C	1.909666	-1.341876	-0.458726
C	-0.446204	-1.286055	0.456379
O	-1.483725	-0.427295	0.998375
C	-1.614275	0.204163	-0.239956
O	-2.42176	1.018238	-0.547191
C	-0.483656	-0.559847	-0.869207
H	0.940709	2.164694	-0.879776
H	1.960918	2.766997	0.432745
H	2.589794	1.551984	-0.68211
H	1.918041	0.519575	1.534729
H	0.299119	1.161736	1.348009
H	2.492969	-0.794401	-1.205009
H	2.582624	-1.614104	0.361175
H	1.556032	-2.265738	-0.927206
H	-0.510761	-2.339371	0.69382
H	-0.431691	-0.909113	-1.890291
