19

C	4.275717	-0.297303	-0.221009
C	2.856474	-0.132737	0.058357
C	1.681958	0.001894	0.294489
C	0.283867	0.164308	0.560949
C	-0.610419	0.921715	-0.415032
O	-1.667391	1.696649	0.076311
C	-0.77833	-0.554846	-0.279716
C	-2.030618	-1.078614	0.398225
O	-3.187562	-0.872715	-0.393953
H	4.539251	0.118179	-1.200205
H	4.890026	0.213968	0.528688
H	4.566426	-1.353964	-0.221515
H	0.007774	0.29213	1.605237
H	-0.132722	1.304501	-1.314981
H	-1.31563	2.529328	0.407614
H	-0.409391	-1.151345	-1.107416
H	-1.949252	-2.159601	0.549937
H	-2.139884	-0.614371	1.388351
H	-3.288862	0.083206	-0.472157
