19

C	-1.29418	2.00745	-0.21002
C	-0.88828	0.65901	0.366465
C	0.275371	-0.173682	-0.275769
C	-0.595728	-1.468103	-0.179258
C	-1.797202	-0.555958	0.107894
O	-2.984091	-0.688645	0.032157
C	1.592837	-0.16932	0.442763
C	2.722464	0.66919	0.019536
O	2.710111	-0.73427	-0.24685
H	-1.452455	1.94082	-1.291202
H	-2.229865	2.349066	0.242141
H	-0.528148	2.766778	-0.02425
H	-0.724351	0.739168	1.451013
H	0.428117	0.112692	-1.32048
H	-0.664839	-2.115283	-1.055903
H	-0.341288	-2.084531	0.690861
H	1.540301	-0.449389	1.4984
H	2.615946	1.310696	-0.854609
H	3.456722	1.001777	0.751909
