19

C	1.028007	2.317389	0.350702
C	0.470183	1.37155	-0.720978
C	0.372769	-0.067192	-0.244557
C	1.656288	-0.809681	-0.125411
O	1.756758	-1.969184	0.208848
C	-0.797437	-1.018903	-0.55549
C	-2.115513	-0.257485	-0.524843
O	-1.803283	0.289916	0.789429
C	-0.623376	-0.501882	0.833023
H	1.116241	3.337205	-0.035755
H	0.365862	2.339764	1.221224
H	2.021211	2.005356	0.691075
H	-0.513051	1.730988	-1.032623
H	1.102638	1.403059	-1.617678
H	2.560402	-0.207202	-0.366693
H	-0.614617	-2.006395	-0.95444
H	-2.301582	0.520356	-1.272801
H	-2.982033	-0.923617	-0.458115
H	-0.328404	-0.968142	1.764908
