19
../xyz/dsC7O2H10nsd_3024.xyz
O         -1.80666       -1.28773       -0.55278
C         -0.54732       -0.67297       -0.68815
C          0.48163       -1.21148        0.34563
C         -0.13786       -0.20574        1.36664
C         -0.46649        0.66168        0.12479
O         -1.64015        1.43672        0.19945
C          0.78424        1.39747       -0.29754
C          1.91700        0.70064       -0.38964
C          1.90164       -0.77678       -0.06031
H         -2.44467       -0.56915       -0.44467
H         -0.23222       -0.63586       -1.74039
H          0.41725       -2.27482        0.58020
H         -1.04541       -0.61415        1.81144
H          0.50470        0.23691        2.13024
H         -1.66361        2.03036       -0.56006
H          0.72537        2.46378       -0.50005
H          2.85454        1.16556       -0.67984
H          2.24550       -1.36057       -0.92572
H          2.61595       -0.99088        0.74692
