19

C	-0.974076	-2.307415	-0.023459
C	-0.765977	-0.818001	-0.013935
C	-1.553283	0.245566	-0.842889
C	-0.507966	1.03591	-0.00301
O	-0.31739	2.395896	0.087531
C	-0.896195	0.156182	1.201975
C	0.548439	-0.058848	-0.443054
C	1.830599	-0.232516	0.306587
O	2.9047	-0.319961	-0.241342
H	-0.812746	-2.720052	-1.024738
H	-0.284675	-2.810664	0.662339
H	-1.995234	-2.556789	0.284003
H	-1.408995	0.223752	-1.926931
H	-2.602445	0.390653	-0.570745
H	-0.122504	2.742358	-0.790372
H	-0.182133	0.058471	2.01965
H	-1.909863	0.301218	1.585206
H	0.764844	-0.087014	-1.515872
H	1.766021	-0.274689	1.414663
