19
../xyz/dsC7O2H10nsd_2335.xyz
C          2.18975        0.41060        0.95555
C          0.94535        0.22990        0.11081
C          0.25866        1.53324       -0.33119
C         -1.18756        1.13582       -0.66770
C         -1.49130       -0.04441        0.26277
O         -2.57592       -0.36821        0.67280
C         -0.17228       -0.73524        0.59629
C          0.32821       -1.64937       -0.54678
O          1.20760       -0.62576       -1.04500
H          2.94590        0.97165        0.39621
H          1.96281        0.96214        1.87382
H          2.62012       -0.55716        1.22850
H          0.27367        2.24905        0.49913
H          0.79485        1.98329       -1.17102
H         -1.92782        1.92854       -0.54809
H         -1.25756        0.77057       -1.70005
H         -0.15448       -1.14301        1.60628
H          0.87719       -2.53196       -0.19531
H         -0.41308       -1.96460       -1.29037
