19

O	-4.503835	-0.460104	-0.439531
C	-3.54319	-0.411533	0.283178
C	-2.364263	0.518101	0.09961
C	-1.031107	-0.246261	0.08628
C	0.168211	0.689662	0.020893
O	1.34086	-0.096657	0.022837
C	2.517737	0.683895	-0.057536
C	3.69077	-0.179653	-0.048459
C	4.67447	-0.867959	-0.042507
H	-3.460515	-1.080907	1.172337
H	-2.516356	1.094564	-0.817666
H	-2.370185	1.220772	0.946676
H	-0.941032	-0.866128	0.986198
H	-0.994399	-0.926589	-0.771474
H	0.121985	1.312383	-0.889301
H	0.163761	1.379551	0.883258
H	2.513276	1.294834	-0.976742
H	2.570885	1.390549	0.788773
H	5.540618	-1.482451	-0.03726
