19

C	-3.487242	0.148065	0.110083
O	-2.195542	0.255231	-0.436672
C	-1.250997	-0.566972	0.217378
C	0.092014	-0.392576	-0.463034
C	0.714629	0.989058	-0.25238
C	2.228807	0.724133	-0.225881
O	2.441311	-0.665449	-0.481148
C	1.295559	-0.90577	0.381522
C	1.434146	0.530308	1.017415
H	-3.509668	0.446895	1.17054
H	-4.140411	0.81511	-0.45787
H	-3.879279	-0.879146	0.037526
H	-1.180713	-0.294497	1.285305
H	-1.567114	-1.623989	0.169492
H	0.056646	-0.776185	-1.48818
H	0.285828	1.957877	-0.470077
H	2.993102	1.435742	-0.507799
H	1.311935	-1.878488	0.870406
H	1.502039	0.92096	2.022594
