19
../xyz/dsC7O2H10nsd_1502.xyz
C          1.43866       -1.18070        1.11407
C          0.98828       -0.22129        0.00009
C          2.17822        0.21055       -0.86486
C         -0.16135       -0.85495       -0.83594
C         -1.46614       -0.40554       -0.16860
O         -2.51634       -0.99407       -0.15518
C         -1.16419        0.88260        0.55407
O         -0.41792        1.78958       -0.28649
C          0.30430        0.99017        0.64124
H          1.91468       -2.06942        0.68793
H          2.16474       -0.69959        1.77858
H          0.59327       -1.51466        1.72572
H          2.60920       -0.64717       -1.39177
H          1.86642        0.94910       -1.60911
H          2.96970        0.65707       -0.25258
H         -0.15515       -0.47685       -1.86373
H         -0.11603       -1.94490       -0.88279
H         -1.86937        1.32709        1.24841
H          0.78985        1.53016        1.45221
