19

C	-2.064429	-0.784474	-0.565138
C	-2.227267	0.089672	0.666501
C	-0.894563	-0.036083	-0.035135
O	-0.420745	1.05527	-0.792867
C	0.622776	1.649962	-0.022018
C	1.356187	0.481114	0.63976
C	2.140526	-0.454446	-0.303535
O	1.112452	-1.464734	-0.244652
C	0.301697	-0.660279	0.639901
H	-2.075405	-1.862751	-0.451351
H	-2.490573	-0.421273	-1.493385
H	-2.7553	1.028069	0.539903
H	-2.362776	-0.388552	1.631245
H	1.2455	2.237153	-0.702803
H	0.205764	2.322474	0.743605
H	1.843687	0.739429	1.579234
H	2.289407	-0.077294	-1.322986
H	3.095756	-0.824386	0.088308
H	0.060719	-1.189955	1.566365
