19

C	2.536474	-1.023829	-0.273257
C	1.53809	-0.193018	0.519235
O	1.434582	1.1416	-0.028436
C	0.054625	1.254935	-0.307493
C	-0.489002	-0.068387	-0.922148
C	-1.83249	0.198218	-0.231398
O	-2.610694	-0.955214	-0.011373
C	-0.787836	0.611605	0.832709
C	0.07959	-0.633942	0.432139
H	3.517796	-0.540875	-0.273192
H	2.644998	-2.019285	0.170431
H	2.212476	-1.139736	-1.311772
H	1.867151	-0.113865	1.565294
H	-0.178419	2.23218	-0.728629
H	-0.319794	-0.455164	-1.926945
H	-2.438216	1.013059	-0.652366
H	-3.339093	-0.718203	0.570851
H	-0.95139	1.005205	1.837299
H	-0.203315	-1.627896	0.768773
