19

C	-1.299536	-1.543394	-0.864937
C	-0.790911	-0.475828	0.061507
C	-1.733498	0.71466	0.453362
C	-0.748696	1.7293	-0.232178
C	0.275397	0.610809	-0.252707
O	1.383135	0.413374	-1.114741
C	2.104521	-0.290203	-0.057186
C	0.991259	0.023578	0.971113
O	-0.002054	-0.998345	1.172388
H	-1.845888	-1.101889	-1.704347
H	-0.471281	-2.13644	-1.262816
H	-1.980256	-2.217111	-0.332251
H	-2.735649	0.677018	0.022621
H	-1.810835	0.834039	1.53509
H	-1.0813	1.990094	-1.241556
H	-0.493759	2.647078	0.30335
H	2.23435	-1.355053	-0.274663
H	3.075295	0.180881	0.13175
H	1.26945	0.547623	1.887796
