19

C	1.866696	1.5009	0.456548
C	0.768598	0.763812	-0.331855
C	-0.644337	0.988229	0.223963
C	-1.806289	0.772231	-0.765243
O	-2.066695	-0.551338	-0.251332
C	-1.1244	-0.370685	0.830769
C	0.02055	-1.364912	0.761785
C	1.01477	-0.75689	-0.235394
O	1.877459	-1.351568	-0.825416
H	1.838035	1.240871	1.520693
H	2.854627	1.237688	0.06969
H	1.737025	2.584335	0.374713
H	0.843401	1.05316	-1.385489
H	-0.719391	1.873977	0.855965
H	-2.663729	1.441389	-0.61755
H	-1.546312	0.755809	-1.83093
H	-1.631764	-0.336238	1.800657
H	0.525763	-1.461492	1.732264
H	-0.297292	-2.362362	0.450541
