19

C	-2.945925	0.053817	0.630903
C	-1.678474	-0.467706	0.002003
O	-1.446379	-1.639697	-0.189005
C	-0.635651	0.600081	-0.416935
O	-0.882532	1.770926	-0.238996
C	0.661276	0.088291	-1.010103
C	1.558014	-0.502216	0.071958
C	3.055184	-0.363411	-0.036989
C	2.300636	0.413989	1.012736
H	-2.706075	0.628996	1.531001
H	-3.442997	0.751896	-0.049929
H	-3.606569	-0.778183	0.87498
H	0.443415	-0.677586	-1.761346
H	1.154111	0.937201	-1.492203
H	1.187152	-1.432441	0.488375
H	3.668944	-1.199369	0.279576
H	3.453596	0.18362	-0.885081
H	2.402704	0.11577	2.050176
H	2.186653	1.48319	0.867029
