19
../xyz/dsC7O2H10nsd_2476.xyz
C          0.75412        1.95732        0.55819
C          0.15931        0.69281       -0.01760
O         -1.07963        0.99031       -0.64128
C         -1.92291       -0.15593       -0.59941
C         -1.58439       -0.86491        0.72117
C         -0.08840       -0.58879        0.89265
C          0.83756       -1.36762       -0.05193
O          2.10514       -0.70034       -0.04741
C          1.07524       -0.19041       -0.90192
H          1.74457        1.74917        0.96906
H          0.84644        2.72173       -0.21996
H          0.11518        2.35705        1.35144
H         -2.95785        0.19117       -0.65973
H         -1.73302       -0.81433       -1.45992
H         -2.13964       -0.41062        1.54738
H         -1.82922       -1.93115        0.69955
H          0.24285       -0.55093        1.93196
H          0.83362       -2.42453       -0.29577
H          1.28975       -0.10221       -1.96140
