19

C	2.65116	-0.647908	-0.173843
C	1.438229	-0.450093	0.743844
C	0.339694	0.419141	0.142069
O	0.800201	1.705854	-0.242941
C	-0.968321	0.599175	0.908481
C	-1.846414	-0.587468	0.476137
O	-1.075575	-1.427465	-0.391595
C	-0.575528	-0.193843	-0.977793
C	-1.780309	0.621357	-0.38384
H	2.361048	-1.085232	-1.136091
H	3.173842	0.295308	-0.370678
H	3.379175	-1.32344	0.28409
H	0.99716	-1.421163	0.98519
H	1.759089	0.008054	1.687476
H	1.512326	1.583336	-0.879613
H	-1.132093	1.159697	1.82012
H	-2.631755	-1.027354	1.076171
H	-0.257667	-0.287933	-2.015289
H	-2.509199	1.309445	-0.785425
