19
../xyz/dsC7O2H10nsd_1854.xyz
C          2.41512        0.14531        0.29984
C          0.93317        0.03866       -0.00132
C          0.28544        1.39407       -0.37039
O         -1.10736        1.25541       -0.62416
C         -1.80569        0.48397        0.34491
C         -1.03498       -0.81179        0.65952
O          0.23134       -0.39445        1.18171
C         -0.64723       -1.52684       -0.62720
C          0.51301       -1.01632       -1.02319
H          2.79814       -0.82108        0.63803
H          2.97159        0.44957       -0.59217
H          2.59636        0.88186        1.08845
H          0.46323        2.09086        0.46436
H          0.71470        1.81909       -1.28361
H         -1.92713        1.04760        1.28329
H         -2.79478        0.28552       -0.08041
H         -1.55060       -1.41872        1.40937
H         -1.27225       -2.24289       -1.14417
H          1.05585       -1.22190       -1.93659
