19

C	2.704759	0.637076	-0.005154
C	1.297048	0.275051	-0.438052
O	1.080946	-1.157086	-0.490527
C	0.140462	-1.109406	0.609403
C	-1.274961	-1.532842	0.197496
C	-1.845832	-0.327066	-0.567902
C	-1.149117	0.893395	0.048397
O	-1.573597	2.019827	0.071336
C	0.182319	0.433855	0.63587
H	2.937555	0.206275	0.973393
H	3.42884	0.25426	-0.731029
H	2.817748	1.724857	0.054651
H	1.069551	0.737661	-1.407572
H	0.518581	-1.654441	1.480319
H	-1.253417	-2.455279	-0.388256
H	-1.86459	-1.724374	1.10213
H	-1.563949	-0.367717	-1.627783
H	-2.930889	-0.220321	-0.523074
H	0.453707	0.976771	1.540401
