19
../xyz/dsC7O2H10nsd_1025.xyz
C         -4.31846        0.37679        0.38475
C         -2.93505        0.12764        0.01060
C         -1.78895       -0.08270       -0.29417
C         -0.42918       -0.32573       -0.68839
O          0.24254       -1.46655       -0.10481
C          0.70423       -0.16551        0.24204
C          2.09247        0.21332       -0.23955
C          3.17320       -0.52058        0.55245
O          2.25924        1.62591       -0.20398
H         -4.41207        1.28693        0.98737
H         -4.95328        0.49515       -0.50006
H         -4.72102       -0.45484        0.97338
H         -0.21792       -0.19781       -1.74993
H          0.46984        0.13701        1.26629
H          2.17124       -0.06004       -1.29783
H          3.11605       -0.26342        1.61808
H          3.04583       -1.60319        0.46181
H          4.16578       -0.24633        0.18552
H          2.33167        1.89224        0.71932
