19
../xyz/dsC7O2H10nsd_2202.xyz
C          1.96942       -1.27789       -0.06559
C          0.59254       -0.67620       -0.06219
C         -0.61830       -1.30827       -0.74537
C         -1.63493       -0.24039       -0.28290
C         -0.99231        1.07182       -0.78094
C          0.34519        0.83377       -0.08397
O          1.41895        1.70837       -0.15385
C         -0.01995        0.02283        1.14398
O         -1.41993       -0.18959        1.14225
H          1.97343       -2.26240        0.41551
H          2.34617       -1.40238       -1.08713
H          2.67629       -0.63380        0.46470
H         -0.52635       -1.36024       -1.83452
H         -0.85541       -2.30163       -0.35279
H         -2.69008       -0.40656       -0.48937
H         -0.91252        1.12367       -1.87011
H         -1.51619        1.95733       -0.40675
H          1.22135        2.47460        0.39630
H          0.44118        0.10715        2.11878
