19
../xyz/dsC7O2H10nsd_4054.xyz
C          2.40384        0.37679        0.44444
C          1.26721       -0.09340       -0.46368
C          0.81667       -1.57437       -0.24195
C         -0.66187       -1.38578        0.10010
C         -1.24503       -0.24265       -0.76745
O         -2.11381        0.21751        0.33403
C         -0.82678       -0.11900        0.97546
C         -0.05782        0.60247       -0.19071
O         -0.06684        1.97681       -0.28757
H          2.59733        1.44386        0.30347
H          2.15709        0.21804        1.50068
H          3.32720       -0.17141        0.23200
H          1.55550        0.07263       -1.50809
H          0.95702       -2.19430       -1.13237
H          1.36778       -2.04806        0.57706
H         -1.29727       -2.24331        0.31367
H         -1.66879       -0.26731       -1.77241
H         -0.75479        0.00355        2.05678
H         -0.97320        2.24740       -0.07971
