19
../xyz/dsC7O2H10nsd_5308.xyz
O         -2.74142        0.02547       -0.56566
C         -1.91420       -0.16314        0.56960
C         -0.45636       -0.08207        0.21827
O         -0.12306        1.18822       -0.32967
C          1.23546        1.46402        0.03921
C          1.82306        0.08796        0.34053
C          1.62919       -0.85086       -0.89591
C          0.29279       -1.29426       -0.30258
C          0.64370       -0.64478        1.04593
H         -2.44862        0.84580       -0.97872
H         -2.13670        0.58086        1.35076
H         -2.14816       -1.15386        0.97226
H          1.72322        1.97015       -0.80056
H          1.26593        2.12463        0.91925
H          2.80299        0.09721        0.81565
H          1.61484       -0.37380       -1.88186
H          2.35709       -1.66570       -0.89822
H         -0.21789       -2.23205       -0.49134
H          0.58123       -1.00403        2.06517
