19
../xyz/dsC7O2H10nsd_3766.xyz
C         -3.14758        0.62768        0.19278
C         -1.93554       -0.02785       -0.43038
C         -1.48107       -1.39342        0.01669
C         -0.65147       -0.17570        0.35550
C          0.70503        0.03381       -0.31316
C          1.07555        1.50790       -0.27659
O          2.09205        1.94505        0.19809
C          1.76442       -0.82861        0.35676
O          2.29464       -1.76914       -0.17322
H         -3.10542        1.71844        0.10052
H         -4.07006        0.28602       -0.28891
H         -3.22193        0.38599        1.25819
H         -1.80810        0.17816       -1.49062
H         -2.02366       -1.87216        0.82491
H         -1.08666       -2.08050       -0.72414
H         -0.68953        0.15416        1.39135
H          0.63568       -0.27366       -1.36499
H          0.30647        2.17914       -0.72098
H          1.99370       -0.54570        1.40607
