19

O	-2.313778	-0.997554	-0.042937
C	-1.040594	-0.582838	-0.447824
C	0.064512	-1.481186	0.150223
C	1.469757	-0.979882	-0.171646
C	2.194061	-0.099677	0.81946
C	1.697286	0.492842	-0.472128
C	0.526014	1.467441	-0.480703
C	-0.785624	0.858615	-0.029736
O	-1.619668	1.458729	0.615332
H	-2.689043	-0.235929	0.429126
H	-0.955475	-0.62217	-1.547631
H	-0.102892	-1.533488	1.231708
H	-0.081339	-2.49462	-0.233188
H	2.088495	-1.670691	-0.734756
H	1.661575	0.157463	1.731249
H	3.262681	-0.226565	0.952281
H	2.460355	0.716161	-1.211052
H	0.719752	2.367514	0.111137
H	0.350974	1.801038	-1.513903
