19

O	-1.230671	1.858525	-0.148986
C	-0.904785	0.479825	-0.273196
C	-2.1113	-0.352317	0.140731
O	-2.407436	-1.425511	-0.318486
C	0.288719	0.186063	0.659694
C	1.499795	1.097112	0.302228
C	2.416447	0.177746	-0.466816
C	2.043615	-1.096861	-0.375739
C	0.802735	-1.270884	0.466795
H	-1.844244	2.092238	-0.852541
H	-0.627075	0.213792	-1.303155
H	-2.718076	0.13912	0.936763
H	-0.045493	0.366486	1.685921
H	1.18576	1.980223	-0.261593
H	1.991985	1.473586	1.209239
H	3.288752	0.539596	-1.000066
H	2.562934	-1.937737	-0.821849
H	0.054522	-1.916435	-0.005628
H	1.044433	-1.739079	1.430504
