19

O	2.497387	-0.088744	-0.638339
C	1.090246	0.000536	-0.59858
C	0.522563	1.029698	0.407874
C	-0.818113	1.638061	0.026452
C	-1.885521	0.668357	-0.416973
C	-1.884233	-0.667305	-0.420926
C	-0.813618	-1.636605	0.013662
C	0.524804	-1.026463	0.39635
O	0.364427	-0.002351	1.411085
H	2.833835	0.66947	-1.126893
H	0.651545	0.008631	-1.604012
H	1.234434	1.798462	0.731518
H	-1.200214	2.208033	0.885796
H	-0.653461	2.383119	-0.76708
H	-2.79389	1.157128	-0.765971
H	-2.791755	-1.155316	-0.773169
H	-1.19088	-2.212741	0.870904
H	-0.646605	-2.375184	-0.7846
H	1.245719	-1.790524	0.704386
