19
../xyz/dsC7O2H10nsd_0634.xyz
C         -2.11414       -0.30731       -0.74498
O         -2.24623        0.45403        0.42851
C         -1.09215        0.12007        1.17915
C          0.01924       -0.02937        0.11739
C          1.07378       -1.12234        0.41784
C          2.43385       -0.55639       -0.05730
C          2.15263        0.91617       -0.23128
C          0.85738        1.20251       -0.12753
O         -0.74362       -0.32379       -1.07909
H         -2.47920       -1.33904       -0.58242
H         -2.68934        0.17049       -1.54455
H         -0.89841        0.91824        1.89853
H         -1.23594       -0.82806        1.72266
H          1.10571       -1.30834        1.49690
H          0.79683       -2.05897       -0.07030
H          3.23682       -0.74785        0.66357
H          2.76110       -1.00223       -1.00553
H          2.93650        1.63570       -0.44294
H          0.40113        2.17813       -0.25104
