19

C	-0.285122	2.154144	-0.074578
C	-0.100649	0.716515	0.380857
C	0.950357	-0.190192	-0.36046
C	-0.056549	-1.382685	-0.251871
C	-1.145388	-0.353888	0.044851
C	-2.448224	-0.192771	-0.602183
O	-2.328147	-0.597572	0.772636
C	2.273649	-0.361652	0.326294
O	3.349528	-0.128406	-0.161298
H	-1.130597	2.61999	0.442888
H	0.606221	2.752311	0.140192
H	-0.474283	2.207684	-1.151614
H	0.09425	0.679584	1.461026
H	1.111132	0.132546	-1.391163
H	-0.167056	-2.022439	-1.129093
H	0.149325	-2.007136	0.624373
H	-2.863726	0.801577	-0.758129
H	-2.811406	-0.960978	-1.283866
H	2.186648	-0.732131	1.377225
