19
../xyz/dsC7O2H10nsd_3765.xyz
C          2.88823        0.96161       -0.09581
C          1.69640        0.16035        0.35665
O          1.47102       -1.09457       -0.31597
C          0.52310       -0.05018       -0.49568
C         -0.88269       -0.30141        0.05683
C         -1.53872       -1.45274       -0.72809
O         -0.74205       -0.65575        1.43027
C         -1.66864        0.93610       -0.07996
C         -2.32540        1.93780       -0.18258
H          2.96007        0.97664       -1.18679
H          2.81425        1.99306        0.26523
H          3.81328        0.53213        0.30271
H          1.53365        0.10076        1.43038
H          0.51228        0.39164       -1.49311
H         -2.54323       -1.65227       -0.34257
H         -1.62678       -1.20530       -1.78976
H         -0.92114       -2.34641       -0.61455
H         -1.62657       -0.76328        1.79488
H         -2.90117        2.82635       -0.26895
