19
../xyz/dsC7O2H10nsd_1696.xyz
C         -0.52845        2.24897       -0.14166
C         -0.18041        0.76799       -0.01369
C         -0.69820       -0.09421       -1.19832
C         -1.34872       -1.35435       -0.57792
C         -1.43426       -1.01792        0.88698
C         -0.79214        0.10558        1.19616
O          1.29577        0.80504        0.09729
C          2.02466       -0.31185        0.09402
O          1.64822       -1.44439       -0.04693
H         -0.09144        2.66978       -1.05237
H         -1.61381        2.37238       -0.18313
H         -0.14501        2.81160        0.71420
H         -1.44687        0.48819       -1.74354
H          0.10093       -0.33180       -1.90090
H         -2.33147       -1.56792       -1.01346
H         -0.72806       -2.24496       -0.72278
H         -1.94448       -1.65572        1.60110
H         -0.68761        0.53505        2.18630
H          3.08096       -0.02699        0.23826
