19
../xyz/dsC7O2H10nsd_0755.xyz
O          2.33258       -1.08812       -0.31913
C          1.31787       -0.45877       -0.12712
C          1.37612        0.95113        0.47095
O          0.11168        1.55458        0.65451
C         -0.66100        1.51510       -0.53941
C         -1.14262        0.09836       -0.83226
C         -2.10238       -0.49766        0.23729
C         -0.93806       -1.34752        0.80634
C         -0.06325       -0.97553       -0.44317
H          1.86189        0.90412        1.45036
H          2.01973        1.56017       -0.18640
H         -1.50756        2.19129       -0.38201
H         -0.06756        1.90685       -1.38284
H         -1.49829        0.03703       -1.86464
H         -2.55345        0.22187        0.92524
H         -2.89902       -1.10269       -0.20217
H         -0.53522       -0.94434        1.73746
H         -1.11823       -2.41596        0.93723
H          0.02359       -1.80069       -1.15101
