19

O	2.084881	-1.275033	-0.206021
C	1.770439	-0.205927	0.668379
C	0.481884	0.445246	0.264986
C	-0.233386	1.736571	0.744161
C	-0.90424	1.246262	-0.564758
O	0.450827	1.002871	-1.126852
C	-0.895759	-0.18177	-0.01503
C	-1.835183	-1.0227	0.776152
C	-1.299147	-1.492767	-0.576885
H	1.943646	-0.941685	-1.100797
H	1.680348	-0.625069	1.676613
H	2.568131	0.553551	0.689876
H	-0.81307	1.685796	1.668438
H	0.352635	2.651235	0.644401
H	-1.628946	1.748089	-1.205612
H	-1.466208	-1.518666	1.668633
H	-2.878265	-0.727174	0.831969
H	-0.561047	-2.286896	-0.579263
H	-1.990531	-1.511383	-1.413304
