19

O	2.882054	-0.238733	-0.72617
C	1.624117	0.328086	-0.429798
C	1.378271	0.590079	1.097888
C	0.306995	-0.508098	1.096165
C	0.556275	-0.764742	-0.400011
C	-0.741716	-0.202312	0.078715
C	-2.101043	-0.889948	-0.032239
O	-2.735966	0.370294	-0.335554
C	-1.485498	1.090721	-0.261812
H	3.547086	0.452985	-0.646886
H	1.411382	1.176883	-1.09789
H	2.270482	0.305576	1.659882
H	1.058374	1.592617	1.40281
H	0.127596	-1.219446	1.894804
H	0.621918	-1.694832	-0.952823
H	-2.209571	-1.61222	-0.852207
H	-2.491901	-1.335907	0.892035
H	-1.22709	1.559099	-1.220786
H	-1.501378	1.860038	0.521403
