19

C	2.706033	-0.961035	-0.095075
C	1.321964	-0.366458	-0.022194
C	0.253565	-1.184828	-0.027747
C	-1.201181	-0.931029	0.026439
O	-1.961974	-1.868587	0.189405
C	-1.836521	0.455536	-0.12728
O	-1.01178	1.527849	-0.503337
C	0.01368	1.820811	0.423831
C	1.321648	1.139516	0.042204
H	3.264452	-0.535917	-0.938638
H	3.280657	-0.71938	0.808091
H	2.681343	-2.046356	-0.208956
H	0.439825	-2.256406	-0.052289
H	-2.60619	0.362343	-0.898872
H	-2.358082	0.666016	0.821516
H	0.157733	2.907165	0.415093
H	-0.289482	1.534535	1.442433
H	1.638893	1.517984	-0.940541
H	2.105751	1.460837	0.742563
