19

O	-1.871119	-0.334207	-1.034193
C	-1.470268	0.066294	0.264334
C	-0.718739	1.427908	0.31576
C	0.783916	1.09609	0.439983
C	1.400103	0.659307	-0.898138
O	0.930669	-0.684766	-1.109263
C	0.754776	-1.26786	0.171417
C	-0.50395	-0.917675	0.936288
C	0.816807	-0.227549	1.241787
H	-1.058938	-0.569337	-1.50393
H	-2.399047	0.132929	0.83849
H	-0.964557	2.041614	-0.555945
H	-1.033864	1.97672	1.209794
H	1.360491	1.898581	0.904691
H	1.082326	1.261147	-1.754103
H	2.498259	0.660278	-0.849311
H	1.194881	-2.25469	0.263274
H	-0.900828	-1.678386	1.599837
H	1.369007	-0.336155	2.166268
