19

O	-1.796555	1.474551	0.090491
C	-1.148961	0.235432	-0.098149
C	-1.65688	-0.931896	0.704053
C	-2.009728	-0.799646	-0.763878
C	0.288368	0.408085	-0.51637
C	1.316684	-0.756453	-0.496349
C	2.469856	0.276169	-0.513527
C	1.409971	0.70288	0.528746
O	1.344622	-0.705294	0.986517
H	-1.508653	1.825984	0.940251
H	-0.952831	-1.691121	1.016167
H	-2.444779	-0.71171	1.416117
H	-1.545758	-1.478232	-1.471717
H	-3.018782	-0.494657	-1.015426
H	0.329379	1.043036	-1.407936
H	1.262598	-1.741031	-0.962741
H	3.406501	-0.084172	-0.088224
H	2.605052	0.893271	-1.404884
H	1.466868	1.477153	1.295181
