19

O	-2.964992	-1.207422	-0.151924
C	-1.880605	-0.528429	0.434795
C	-2.00831	1.03407	0.480346
C	-0.758767	1.148511	-0.403224
C	0.40273	0.461676	0.260462
C	1.772542	0.59757	-0.379971
C	2.677309	-0.573242	-0.047526
O	3.80407	-0.474334	0.363241
C	-0.631663	-0.377706	-0.449914
H	-3.137793	-0.808053	-1.012095
H	-1.714809	-1.02457	1.39625
H	-2.926611	1.344916	-0.025714
H	-1.964512	1.523518	1.458989
H	-0.600341	1.876005	-1.191201
H	0.423752	0.432636	1.350558
H	1.658599	0.621891	-1.473889
H	2.276182	1.520461	-0.076461
H	2.210892	-1.572111	-0.212475
H	-0.377407	-1.035341	-1.274302
