19

O	0.521922	1.892878	-0.558702
C	0.569973	0.62356	-0.001006
C	1.897939	0.127578	0.633539
C	1.787478	-1.220261	-0.1376
C	0.435003	-0.789373	-0.753799
C	-0.766288	-1.121452	0.152702
C	-2.107194	-0.57345	-0.363192
O	-1.89531	0.706095	0.273901
C	-0.657961	0.272944	0.855766
H	1.334322	2.04278	-1.053424
H	2.752686	0.73794	0.324991
H	1.906873	0.072596	1.726864
H	2.577743	-1.352132	-0.880572
H	1.752652	-2.121537	0.480853
H	0.295367	-0.914814	-1.829382
H	-0.770803	-2.080469	0.671421
H	-2.208212	-0.487015	-1.452521
H	-2.996749	-1.074992	0.039491
H	-0.610475	0.468589	1.932228
