19

C	2.180637	-1.441572	0.532966
C	1.400208	-0.390963	-0.283083
C	1.996731	0.939155	-0.172931
C	2.471699	2.037208	-0.05416
C	-0.056174	-0.343727	0.161935
O	-0.869655	-1.447089	-0.232341
C	-1.163259	-0.156827	-0.782408
C	-2.487218	0.473726	-0.396032
O	-2.673672	0.644145	0.99504
H	3.214854	-1.510347	0.187201
H	2.193138	-1.175027	1.593988
H	1.702873	-2.418571	0.422919
H	1.409743	-0.697329	-1.33716
H	2.901623	3.003987	0.036064
H	-0.207987	-0.034498	1.19608
H	-0.918752	-0.062557	-1.843226
H	-2.590045	1.423791	-0.943717
H	-3.297623	-0.182775	-0.732882
H	-2.116957	1.374874	1.281425
