19
../xyz/dsC7O2H10nsd_0041.xyz
C         -3.16962       -0.93768        0.63531
C         -2.63181        0.12685       -0.33536
C         -1.14485        0.30940       -0.25216
C         -0.47088        1.40873        0.17914
O          0.87635        1.21427        0.12105
C          1.07619       -0.05208       -0.35462
C          2.49684       -0.48295       -0.47192
O          3.14533       -0.63475        0.78692
C         -0.12254       -0.64509       -0.59513
H         -2.94803       -0.66758        1.67230
H         -4.25392       -1.04636        0.53352
H         -2.71416       -1.91429        0.44332
H         -2.90981       -0.15020       -1.36042
H         -3.12321        1.08570       -0.13497
H         -0.79124        2.37306        0.53943
H          2.53013       -1.46194       -0.95694
H          3.04945        0.22456       -1.11028
H          3.05576        0.20340        1.25270
H         -0.26828       -1.64555       -0.97400
