19

C	0.229363	1.889317	-0.107063
C	-0.118845	0.415766	-0.237982
O	0.996799	-0.226675	-0.923482
C	2.102985	-0.48463	-0.218253
O	2.284774	-0.261481	0.948419
C	-1.484025	-0.063076	-0.807346
C	-1.197059	-1.452602	-0.158643
C	-0.77887	-0.398701	0.916457
C	-2.108742	0.33349	0.56442
H	0.488684	2.293272	-1.090538
H	-0.592866	2.481019	0.295408
H	1.091292	2.009122	0.553343
H	2.843769	-0.949603	-0.889224
H	-1.881102	0.140396	-1.802732
H	-2.078422	-2.049065	0.086437
H	-0.413624	-2.061269	-0.605586
H	-0.358605	-0.580043	1.903533
H	-3.019183	-0.206932	0.830431
H	-2.201353	1.39096	0.809896
