19
../xyz/dsC7O2H10nsd_0287.xyz
C          2.08933       -0.48980        0.17232
C          1.15261        0.42974       -0.61660
C          0.46550        1.72150       -0.25129
O         -0.96365        1.49037       -0.21021
C         -1.37033        0.25276        0.39476
C         -1.40815       -0.94400       -0.61462
O         -0.15207       -1.65835       -0.46246
C          0.62562       -0.71051        0.22460
C         -0.27884       -0.24049        1.35001
H          2.70386       -1.13938       -0.44072
H          2.57169       -0.14774        1.08341
H          1.14957        0.20302       -1.67867
H          0.81758        2.12531        0.70747
H          0.59979        2.50256       -1.00343
H         -2.35225        0.44283        0.83361
H         -2.22147       -1.64225       -0.39482
H         -1.51293       -0.56790       -1.63818
H         -0.60460       -1.08730        1.95981
H          0.12008        0.53944        1.99780
