19
../xyz/dsC7O2H10nsd_3078.xyz
C         -1.66222        1.69978        0.06431
C         -1.48756        0.25554       -0.37564
C         -1.12937       -0.90387        0.59736
C          0.15835       -0.44159        1.31591
C          0.88597        0.04568        0.04936
C          1.91063        1.08466       -0.05666
O          2.23946       -0.30452       -0.19232
C         -0.17311       -0.29412       -0.99584
O         -0.58086       -1.62696       -0.54981
H         -1.73879        2.36015       -0.80617
H         -2.58363        1.81731        0.64469
H         -0.83161        2.05781        0.67804
H         -2.32006       -0.07223       -1.00315
H         -1.87444       -1.46317        1.16305
H         -0.00159        0.33630        2.06709
H          0.68428       -1.28244        1.77255
H          2.00185        1.67683       -0.96732
H          2.28457        1.56859        0.84513
H          0.09455       -0.22388       -2.04976
