19

C	-2.947482	-1.062042	-0.362397
C	-1.724536	-0.514749	0.361743
C	-1.779859	1.028426	0.650776
C	-0.558895	1.233947	-0.249556
C	0.577254	0.404266	0.251642
O	1.778783	0.649766	-0.467402
C	2.805636	-0.176151	-0.202736
O	2.802937	-1.087638	0.575742
C	-0.500009	-0.277575	-0.535404
H	-2.790673	-2.099827	-0.676103
H	-3.829252	-1.036355	0.286927
H	-3.17103	-0.471742	-1.258333
H	-1.510385	-1.130711	1.243552
H	-2.687492	1.4803	0.242858
H	-1.669919	1.344711	1.693509
H	-0.371799	2.068953	-0.91353
H	0.745451	0.194458	1.304641
H	3.664663	0.133941	-0.817545
H	-0.265983	-0.797488	-1.457101
