19
../xyz/dsC7O2H10nsd_4493.xyz
O          2.41220       -0.65877       -0.41274
C          1.22466       -0.65102        0.36367
C          1.01889        0.71203        1.02997
O          0.55703        1.52858       -0.04447
C         -0.41395        0.74068       -0.76337
C         -1.80514        0.87394       -0.19761
C         -2.25903       -0.27178        0.30543
C         -1.27764       -1.40719        0.15552
C         -0.04024       -0.76064       -0.52240
H          2.42840        0.17669       -0.89566
H          1.31505       -1.47690        1.07374
H          0.27849        0.65871        1.84217
H          1.94657        1.14321        1.41290
H         -0.34756        1.06658       -1.80614
H         -2.33119        1.82168       -0.19801
H         -3.22784       -0.40708        0.77562
H         -1.03640       -1.86119        1.12625
H         -1.69153       -2.21759       -0.45668
H          0.22684       -1.27877       -1.44374
