19

O	2.249618	-0.787305	-0.906928
C	1.7352	0.379161	-0.329378
C	1.554888	0.452412	1.166237
C	0.353111	0.301269	0.25703
C	-0.675638	1.419547	0.066356
C	-1.813768	0.782854	-0.773657
C	-1.72054	-0.697881	-0.454025
O	-1.616251	-0.982601	0.948459
C	-0.415088	-0.982336	0.154002
H	3.181258	-0.849742	-0.67176
H	1.996745	1.300309	-0.852617
H	1.854567	-0.419329	1.739369
H	1.709941	1.403463	1.666051
H	-1.063831	1.72346	1.042246
H	-0.248234	2.306593	-0.409603
H	-2.794454	1.208044	-0.540043
H	-1.641041	0.919534	-1.848028
H	-2.270189	-1.430798	-1.039592
H	0.099317	-1.932443	0.062347
