19

C	-1.472359	-1.006072	-0.702544
C	-1.767707	0.01762	0.43634
C	-1.1968	1.37413	-0.052357
C	0.128794	0.806437	-0.624447
O	1.343536	1.197095	-0.015545
C	2.1237	0.022759	0.280457
C	1.335712	-1.221936	-0.22146
C	-0.058962	-0.663444	-0.202455
O	-0.613624	-0.517778	1.146625
H	-1.794121	-2.010598	-0.426519
H	-1.742542	-0.763554	-1.734021
H	-2.692196	0.003728	1.013803
H	-1.810427	1.879041	-0.802689
H	-1.021916	2.046651	0.789207
H	0.194493	0.932217	-1.714926
H	3.102935	0.111949	-0.202983
H	2.275954	-0.027555	1.364298
H	1.625	-1.492641	-1.241635
H	1.469259	-2.090732	0.425629
