19

C	2.419407	-0.927546	0.696668
C	1.626143	-0.115563	-0.337317
C	1.480708	1.361523	-0.060467
C	0.213452	1.777908	-0.099879
C	-0.756855	0.668215	-0.410879
C	-1.916272	0.461832	0.588871
O	-2.784815	-0.564362	0.171666
C	0.158919	-0.562167	-0.435657
O	-0.222622	-1.710819	-0.45041
H	3.474269	-0.63852	0.693148
H	2.025632	-0.766453	1.704868
H	2.347585	-1.993805	0.467832
H	2.084497	-0.280243	-1.325455
H	2.337963	1.996126	0.135736
H	-0.110337	2.800326	0.060803
H	-1.217676	0.787569	-1.402694
H	-1.497248	0.268877	1.590587
H	-2.509127	1.380683	0.656528
H	-2.229065	-1.338323	0.000557
