19
../xyz/dsC7O2H10nsd_5661.xyz
C          0.64538        2.52607       -0.16862
C          0.37073        1.04618       -0.38017
C         -0.93383        0.45872        0.20060
C         -1.85137       -0.31683       -0.72811
O         -2.75494       -1.11045        0.01431
O         -0.19798       -0.46556        1.04937
C          1.07911        0.05031        0.58802
C          1.94169       -0.96072        0.00287
C          2.66100       -1.78451       -0.49650
H         -0.02962        3.13878       -0.77527
H          0.50422        2.81043        0.87971
H          1.67163        2.78077       -0.45305
H          0.52133        0.76918       -1.42676
H         -1.51846        1.15563        0.81542
H         -2.44889        0.37328       -1.33520
H         -1.24112       -0.93008       -1.41088
H         -2.21172       -1.64403        0.60753
H          1.60302        0.55504        1.41118
H          3.29672       -2.51638       -0.93067
