19
../xyz/dsC7O2H10nsd_3825.xyz
C          2.33213       -0.91280       -0.13802
C          0.92521       -1.14556        0.39305
C         -0.22384       -1.45741       -0.62132
C         -1.04518       -0.27618       -0.05200
C         -2.50564       -0.40312        0.27398
O         -0.75132        0.95321       -0.81550
C          0.24201        1.32307        0.06245
O          0.90933        2.30762        0.02173
C          0.10621        0.08063        0.93034
H          3.00914       -0.59177        0.66032
H          2.73530       -1.83439       -0.57122
H          2.34704       -0.14176       -0.91464
H          0.94810       -1.91076        1.17399
H          0.02875       -1.33145       -1.67650
H         -0.68822       -2.43621       -0.48061
H         -2.67855       -1.26857        0.92092
H         -2.87182        0.49319        0.78295
H         -3.09118       -0.54090       -0.64129
H          0.01193        0.22408        2.00539
