19

C	-2.373748	-0.87154	0.699199
C	-1.22213	-0.169457	-0.031833
C	-1.725091	1.063609	-0.784362
O	-0.681158	-1.029879	-1.037829
C	-0.111672	0.209074	0.993626
C	1.160922	0.675548	0.306376
O	1.354728	1.83089	-0.005536
C	2.149821	-0.355918	0.031398
C	2.978682	-1.208268	-0.159815
H	-2.815178	-0.225654	1.464846
H	-3.154144	-1.14676	-0.015773
H	-2.023135	-1.785396	1.193125
H	-2.220991	1.758515	-0.101021
H	-0.901236	1.589282	-1.270599
H	-2.441532	0.753037	-1.549667
H	-0.338643	-1.822973	-0.610885
H	-0.46579	1.020549	1.635979
H	0.109764	-0.661873	1.621095
H	3.721617	-1.945096	-0.347719
