19

O	1.703171	-1.498348	0.567276
C	1.386389	-0.54778	-0.445159
C	1.591252	0.939773	-0.026214
C	0.171775	1.500827	0.119397
C	-0.649019	0.712378	1.197096
C	-1.177015	-0.166941	0.063408
O	-2.404976	-0.803932	0.066702
C	-0.670091	0.791949	-0.985098
C	-0.067899	-0.590706	-0.902397
H	1.014524	-1.450781	1.237393
H	2.054259	-0.807556	-1.272095
H	2.18431	1.004732	0.890648
H	2.130178	1.479062	-0.813199
H	0.108524	2.586253	0.187717
H	-0.095205	0.258216	2.029617
H	-1.46085	1.319504	1.60651
H	-2.289044	-1.696288	0.410744
H	-1.159277	1.221159	-1.848686
H	-0.38532	-1.333059	-1.626677
