19
../xyz/dsC7O2H10nsd_4225.xyz
C         -2.58555       -0.26738       -0.56974
C         -1.18195       -0.11482       -0.07156
C         -0.45836       -0.54554        1.16164
O          0.16532        0.72547        1.39376
C         -0.34116        1.17988        0.08255
C          0.79556        1.07228       -0.92031
C          1.22972       -0.41761       -0.77386
O          2.37934       -0.57945        0.03864
C         -0.01977       -1.09097       -0.18686
H         -2.93353       -1.29712       -0.44031
H         -3.27766        0.38882       -0.03040
H         -2.65953       -0.02847       -1.63736
H         -0.74012       -1.13772        2.02471
H         -0.85591        2.13850        0.17127
H          0.42152        1.28584       -1.92898
H          1.63170        1.74459       -0.71026
H          1.49411       -0.85348       -1.74077
H          2.15732       -0.16626        0.88317
H         -0.22612       -2.13782       -0.38146
