19
../xyz/dsC7O2H10nsd_0200.xyz
C          2.11173        0.54319       -0.04983
C          1.00861       -0.10821       -0.86459
O          0.49094       -1.41628       -0.73760
C         -0.51716       -1.27716        0.28489
C          0.21610       -0.45939        1.33670
C          0.66682        0.65966        0.38189
C         -0.45966        1.65411        0.22318
C         -1.59852        0.82280       -0.45219
O         -1.67571       -0.57809       -0.11427
H          2.76240       -0.04340        0.59076
H          2.60472        1.37626       -0.54454
H          0.82310        0.33224       -1.84010
H         -0.85175       -2.28350        0.54215
H         -0.43436       -0.10205        2.13719
H          1.04635       -1.02400        1.76548
H         -0.77474        2.07099        1.18609
H         -0.21168        2.49431       -0.43404
H         -2.58495        1.22918       -0.20920
H         -1.46845        0.89493       -1.53910
