19
../xyz/dsC7O2H10nsd_0490.xyz
C          2.51827       -0.48032       -0.11314
C          1.85410        0.63834        0.71252
C          0.56462        0.20054       -0.01613
C         -0.35151        1.23687       -0.72213
C         -1.50977        0.88155        0.25329
C         -2.41169       -0.24817       -0.26090
O         -1.45707       -1.25614        0.14992
C         -0.64207       -0.28194        0.82534
O          1.28074       -0.75632       -0.80405
H          3.31079       -0.16996       -0.80339
H          2.86597       -1.34685        0.46186
H          1.85610        0.50617        1.79668
H          2.18946        1.64887        0.47111
H          0.01206        2.26624       -0.66667
H         -0.55665        0.99221       -1.76795
H         -1.94826        1.68136        0.84656
H         -3.36054       -0.35945        0.28061
H         -2.60701       -0.27316       -1.34004
H         -0.48286       -0.52691        1.88120
