19
../xyz/dsC7O2H10nsd_0382.xyz
C          2.33602        0.17351        0.40036
O          1.89329       -0.61999       -0.70925
C          0.91918        0.10598        0.03526
C          0.13155        1.24042       -0.65136
C         -1.29989        0.93177       -0.16599
C         -1.06676        0.45550        1.27861
C         -0.13278       -0.68462        0.81587
C         -1.03584       -1.35471       -0.23496
O         -1.75404       -0.25513       -0.83115
H          2.70803       -0.38803        1.25720
H          2.92028        1.05523        0.13750
H          0.46885        2.23209       -0.33195
H          0.21177        1.17526       -1.73868
H         -2.03584        1.71857       -0.33167
H         -0.57153        1.19610        1.91192
H         -1.98137        0.10469        1.76214
H          0.26629       -1.36197        1.57064
H         -0.45934       -1.88466       -1.00029
H         -1.74990       -2.05341        0.21959
