19

C	2.170582	-1.030004	0.707974
O	2.202565	-0.230408	-0.463317
C	1.039776	0.505783	-0.729985
O	-0.099247	-0.339543	-0.899959
C	-1.122505	0.037011	-0.002205
C	-1.997674	-1.047542	0.57204
C	-2.546979	-0.100047	-0.47449
C	-0.60877	1.189549	0.763965
C	0.621308	1.478966	0.350575
H	1.363449	-1.770102	0.664368
H	3.130906	-1.548047	0.750592
H	2.048286	-0.427037	1.617392
H	1.265341	0.992126	-1.687841
H	-1.76898	-2.058975	0.255313
H	-2.338822	-0.9542	1.597591
H	-2.67839	-0.48759	-1.478301
H	-3.268702	0.652247	-0.17458
H	-1.186144	1.691955	1.52961
H	1.27209	2.266937	0.704823
