19
../xyz/dsC7O2H10nsd_0434.xyz
C          2.51748        0.64744        0.39338
C          2.47768       -0.70848       -0.26190
C          1.41773        0.30984       -0.58889
C          0.02360        0.12913       -0.09322
C         -0.95046        1.29551       -0.06401
O         -2.24074        0.73345        0.14111
C         -2.24672       -0.62592       -0.28273
C         -0.80634       -1.07560       -0.22324
O         -0.17659       -0.74990        1.02503
H          2.24765        0.69788        1.44232
H          3.27862        1.35508        0.08507
H          3.21278       -0.93952       -1.02432
H          2.17713       -1.54453        0.35840
H          1.47595        0.78889       -1.56238
H         -0.75593        1.99841        0.75262
H         -0.89245        1.84397       -1.01893
H         -2.90984       -1.18167        0.38851
H         -2.62193       -0.73284       -1.31424
H         -0.47117       -1.98570       -0.71241
