19
../xyz/dsC7O2H10nsd_2675.xyz
O          1.84746        1.53154       -0.29769
C          0.72171        0.72489       -0.48243
C          0.95366       -0.81628       -0.43013
O          2.14962       -1.02435        0.30586
C         -0.32936       -0.94690        0.44177
C         -1.62285       -1.17115       -0.29418
C         -2.37885       -0.07256       -0.34498
C         -1.74775        1.11152        0.35498
C         -0.32946        0.60354        0.66926
H          2.45101        1.02265        0.25945
H          0.24315        1.03302       -1.41730
H          0.97638       -1.36129       -1.38302
H          2.16886       -1.93336        0.61915
H         -0.20545       -1.60951        1.30696
H         -1.89434       -2.13172       -0.72013
H         -3.35335       -0.01443       -0.81893
H         -1.72930        2.00970       -0.27687
H         -2.31212        1.38345        1.25736
H          0.07585        0.94558        1.62210
