19
../xyz/dsC7O2H10nsd_4402.xyz
O         -3.05920       -0.04049        0.05114
C         -1.70516       -0.01101       -0.37383
C         -1.07503        1.27464        0.15449
C          0.43311        1.28803       -0.12657
C          1.08453       -0.00993        0.38987
O          0.44649       -1.15568       -0.17310
C         -0.92727       -1.21833        0.16847
C          2.50759       -0.07445        0.07305
C          3.68142       -0.08570       -0.18051
H         -3.48875       -0.79765       -0.35987
H         -1.63543       -0.02046       -1.47346
H         -1.56525        2.14483       -0.29251
H         -1.26003        1.32272        1.23565
H          0.62578        1.35933       -1.20266
H          0.91225        2.14927        0.34930
H          0.96583       -0.04369        1.48830
H         -1.30351       -2.15457       -0.25791
H         -1.06392       -1.26114        1.26237
H          4.71953       -0.10882       -0.40337
