19

C	-2.660925	-0.394517	0.035863
C	-1.261303	-0.246763	-0.538658
O	-0.848877	1.141932	-0.476508
C	0.327592	1.131436	0.330273
O	0.094023	0.101227	1.275279
C	-0.14085	-0.926944	0.297488
C	1.133884	-0.893183	-0.547416
C	2.38937	-0.410985	0.130346
C	1.471944	0.588169	-0.525824
H	-2.660338	-0.142662	1.099737
H	-3.352799	0.278507	-0.478039
H	-3.023882	-1.420787	-0.087784
H	-1.230824	-0.577634	-1.583886
H	0.446333	2.096145	0.822785
H	-0.409942	-1.860382	0.791243
H	1.180368	-1.479403	-1.456948
H	2.4493	-0.43814	1.212038
H	3.318963	-0.618439	-0.388303
H	1.763387	1.134253	-1.413439
