19
../xyz/dsC7O2H10nsd_3163.xyz
O         -0.19562        2.11649        0.47570
C         -0.09958        1.02219       -0.42610
C          1.31008        0.47878       -0.67106
C          2.08395       -0.18147        0.44723
C          1.27809       -1.02667       -0.50637
C         -0.14114       -1.42669       -0.12861
C         -0.72319       -0.95664        1.19651
C         -0.98513       -0.18729       -0.07137
O         -2.27690       -0.19369       -0.60104
H          0.29332        1.88157        1.27131
H         -0.49125        1.40942       -1.37274
H          1.88678        0.94987       -1.45861
H          3.16252       -0.19720        0.33212
H          1.77147       -0.08444        1.48111
H          1.80972       -1.67959       -1.18851
H         -0.53775       -2.34373       -0.54790
H         -1.56976       -1.52813        1.56235
H         -0.08451       -0.56591        1.98058
H         -2.79882        0.44251       -0.09850
