19

C	0.380848	2.181419	-0.160988
C	0.467455	0.697715	0.030877
C	0.847943	-0.024643	1.35862
C	0.278059	-1.263137	0.591053
C	1.258369	-1.32485	-0.58755
O	1.352471	0.080571	-0.928815
C	-0.736619	-0.264065	0.00333
C	-1.947427	-0.358353	-0.795986
O	-1.978436	0.033934	0.599027
H	1.343635	2.657807	0.045833
H	0.10024	2.415836	-1.192567
H	-0.372684	2.601397	0.510742
H	1.907074	-0.031007	1.627071
H	0.219953	0.271104	2.200109
H	-0.015722	-2.190665	1.078587
H	2.247283	-1.711876	-0.314797
H	0.875303	-1.893962	-1.442757
H	-2.199248	0.431361	-1.501881
H	-2.389888	-1.330549	-1.008171
