19
../xyz/dsC7O2H10nsd_5542.xyz
C          2.46789       -0.01102        1.03933
C          1.33637       -0.18731        0.06785
C          1.23008       -1.37590       -0.88335
C          0.09160       -1.13617        0.03876
C         -0.80338       -0.03161       -0.54575
C         -1.95348        0.43775        0.32878
O         -2.92571       -0.59778        0.35761
C          0.43267        0.90366       -0.41332
O          0.53362        2.10119       -0.41979
H          3.34462        0.42039        0.54434
H          2.18496        0.66103        1.85555
H          2.76879       -0.97011        1.47241
H          1.11022       -1.22424       -1.95321
H          1.90458       -2.18697       -0.62572
H         -0.21240       -1.82759        0.81328
H         -1.16975       -0.22967       -1.55881
H         -1.58296        0.66557        1.34138
H         -2.36059        1.37015       -0.08826
H         -3.66125       -0.30226        0.90263
