19

C	2.870263	0.074924	0.22945
C	1.350719	0.061129	0.32492
O	0.936466	-1.224046	-0.16479
C	-0.425671	-1.368886	-0.529963
C	-1.415148	-0.75102	0.4468
O	-2.502171	-0.044599	-0.163999
C	-1.502518	0.716836	0.52992
C	-0.574785	1.54544	-0.293234
C	0.717028	1.236567	-0.403901
H	3.274486	0.986808	0.679738
H	3.288437	-0.788987	0.751561
H	3.186591	0.030746	-0.817446
H	1.06507	0.12816	1.385608
H	-0.626626	-0.922308	-1.511685
H	-0.587574	-2.448335	-0.611137
H	-1.693382	-1.340081	1.320022
H	-1.874818	1.168648	1.451195
H	-0.994866	2.405311	-0.809406
H	1.368984	1.839254	-1.032079
