19

O	-1.772378	1.640405	0.142599
C	-1.73935	0.323842	-0.406344
C	-0.533874	-0.485153	0.113415
C	0.799815	0.206804	-0.180799
C	2.003801	-0.558374	0.393164
C	3.298949	0.192291	0.182064
O	4.278204	-0.252894	-0.357903
C	-2.996814	-0.389575	-0.168966
C	-4.018917	-0.971927	0.079136
H	-2.11907	1.570722	1.039207
H	-1.61528	0.478312	-1.485977
H	-0.654694	-0.632674	1.194817
H	-0.55941	-1.482055	-0.342032
H	0.923078	0.31532	-1.266184
H	0.769129	1.221836	0.230119
H	1.868142	-0.678154	1.478623
H	2.102136	-1.555713	-0.04592
H	3.286681	1.237816	0.573095
H	-4.928985	-1.482945	0.276663
