19
../xyz/dsC7O2H10nsd_5717.xyz
C          3.37953        0.57478        0.09141
O          2.05851        0.71740       -0.39201
C          1.13347       -0.01688        0.34055
C          0.91243       -1.47584        0.01912
C         -0.10997       -0.43118       -0.37795
C         -1.45799       -0.38560        0.32219
O         -2.31713       -1.44714       -0.08731
C         -2.09912        0.92322        0.14754
C         -2.63059        1.98428       -0.04417
H          3.71662       -0.47097        0.05078
H          4.02271        1.18500       -0.54670
H          3.47131        0.92758        1.12994
H          1.04334        0.28785        1.38565
H          1.51024       -1.90481       -0.77709
H          0.66443       -2.15835        0.82541
H         -0.13555       -0.16148       -1.42997
H         -1.30062       -0.56375        1.39343
H         -2.58983       -1.26464       -0.99349
H         -3.10024        2.92479       -0.19553
