19

C	2.419421	0.075938	-0.410851
C	1.651168	1.204646	0.348464
C	0.657832	0.151686	0.919402
C	1.391622	-0.951529	0.106878
O	0.251679	-1.091353	-0.7731
C	-0.53344	-0.174173	0.00625
C	-1.400697	0.869676	-0.718074
O	-2.576998	0.444422	0.000691
C	-1.876887	-0.681105	0.569177
H	2.460512	0.151536	-1.499367
H	3.429562	-0.09037	-0.026937
H	2.24807	1.695364	1.119667
H	1.199717	1.981853	-0.2736
H	0.485726	0.133642	1.994928
H	1.736254	-1.914694	0.490836
H	-1.167039	1.926696	-0.542551
H	-1.478145	0.684357	-1.797398
H	-1.97964	-0.72716	1.660227
H	-2.186586	-1.636604	0.125984
