19

C	2.198023	1.290264	-0.17573
C	1.555866	-0.074388	-0.06222
O	2.171744	-1.108831	-0.217575
C	0.095129	-0.108262	0.244815
C	-0.505395	-1.328455	0.916299
C	-0.850328	-1.02463	-0.51584
C	-2.076505	-0.172156	-0.794741
C	-1.912885	1.013813	0.183062
O	-0.514253	1.138328	0.455733
H	3.253222	1.17569	-0.424925
H	1.685768	1.887104	-0.93711
H	2.08544	1.83786	0.765825
H	0.186877	-2.14461	1.085927
H	-1.242372	-1.164217	1.695091
H	-0.454301	-1.669469	-1.290773
H	-2.054608	0.167877	-1.834984
H	-3.023424	-0.695917	-0.633112
H	-2.262365	1.966849	-0.222801
H	-2.457597	0.825732	1.117731
