19
../xyz/dsC7O2H10nsd_5000.xyz
C          3.03258       -0.79255       -0.02754
C          2.27743        0.53998        0.02321
C          0.78990        0.36835        0.09807
C         -0.33319        1.43820        0.03001
C         -0.96208        0.01919       -0.09029
C         -0.08099       -0.45774        1.08865
O          0.11302       -0.34928       -1.03167
C         -2.36564       -0.34234       -0.45322
O         -3.28078       -0.32235        0.32946
H          2.69671       -1.39279       -0.87734
H          4.10848       -0.62516       -0.12795
H          2.86710       -1.37677        0.88319
H          2.59482        1.13088        0.89163
H          2.50562        1.14005       -0.86598
H         -0.55616        2.01832        0.92795
H         -0.35803        2.02784       -0.88719
H         -0.27992       -0.03756        2.07636
H          0.11381       -1.53022        1.10601
H         -2.49836       -0.62009       -1.52228
