19
../xyz/dsC7O2H10nsd_1753.xyz
O         -2.22722        0.07735       -0.99421
C         -1.06966        0.04095       -0.24173
C         -0.28850        1.22738        0.26040
C          1.17131        1.43575       -0.11606
C          1.99662        0.13359       -0.19037
C          1.22025       -1.04660       -0.80131
C         -0.13758       -1.18031       -0.12178
O         -0.03234       -0.97584        1.32661
C         -0.84725        0.19135        1.23281
H         -2.05762        0.59176       -1.79073
H         -0.89575        2.13178        0.28511
H          1.18970        1.93551       -1.09493
H          1.64842        2.12949        0.58620
H          2.91322        0.31625       -0.76071
H          2.29877       -0.15478        0.81928
H          1.05335       -0.90656       -1.87851
H          1.80154       -1.96838       -0.68870
H         -0.64582       -2.12626       -0.33269
H         -1.50048        0.42641        2.06473
