19

C	-1.806996	-1.541849	-0.226894
C	-1.345283	-0.154789	0.220383
O	-2.233377	0.854089	-0.245906
C	0.036165	0.220706	-0.355757
C	0.437202	1.579921	0.000336
C	0.827752	2.669639	0.324304
C	1.164274	-0.729468	0.124588
C	2.437539	-0.701516	-0.693293
O	1.024366	-1.43587	1.092833
H	-2.814232	-1.739354	0.15669
H	-1.848287	-1.598322	-1.319961
H	-1.146795	-2.32304	0.154644
H	-1.265789	-0.130927	1.315552
H	-3.099748	0.681315	0.135286
H	-0.024608	0.154014	-1.4516
H	1.141792	3.646036	0.59952
H	2.247306	-1.157419	-1.672678
H	2.75785	0.328473	-0.872606
H	3.220676	-1.262391	-0.182259
