19
../xyz/dsC7O2H10nsd_0848.xyz
O         -3.48676       -0.77410       -0.16332
C         -2.47661       -0.39364        0.36691
C         -1.21266        0.02502       -0.34640
C         -0.77823        1.46704        0.02702
C          0.77718        1.46367        0.04503
C          1.21230        0.02650       -0.34182
C         -0.00024       -0.84017        0.05991
C          2.47744       -0.39757        0.36599
O          3.48817       -0.76960       -0.16916
H         -2.40188       -0.32177        1.48029
H         -1.38897       -0.06367       -1.42213
H         -1.18606        2.19338       -0.67928
H         -1.16927        1.73612        1.01490
H          1.20536        2.20161       -0.63679
H          1.14563        1.71068        1.04738
H          1.38650       -0.05286       -1.41873
H          0.00071       -1.82429       -0.41452
H         -0.00164       -0.99607        1.14870
H          2.40326       -0.33866        1.48014
