19
../xyz/dsC7O2H10nsd_5623.xyz
C         -2.60486        0.00929        0.23357
O         -1.51485       -0.88210        0.35401
C         -0.42908       -0.56571       -0.49824
C          0.62668       -1.64555       -0.39103
C          1.82669       -1.14782       -0.08710
C          1.78038        0.33161        0.10421
C          0.88714        0.81702        1.24640
C          0.33496        0.72207       -0.13819
O         -0.04397        1.92169       -0.74382
H         -2.99775        0.02687       -0.79577
H         -3.38774       -0.35242        0.90463
H         -2.33483        1.03583        0.51270
H         -0.80975       -0.47254       -1.53503
H          0.37813       -2.69105       -0.52473
H          2.73147       -1.73133        0.04435
H          2.59868        0.96942       -0.21006
H          0.56050        0.09959        1.99093
H          1.06920        1.82514        1.60250
H          0.13119        1.84830       -1.68874
