19
../xyz/dsC7O2H10nsd_1605.xyz
C         -0.32645        1.77574       -0.72672
C          0.13088        0.51627       -0.00218
C         -0.93880       -0.01456        0.98906
C         -2.18824       -0.41044        0.35477
C         -3.22573       -0.72562       -0.16353
C          1.48486        0.66687        0.72087
O          2.05210       -0.62856        0.61491
C          1.69040       -1.06030       -0.67358
O          0.41889       -0.51024       -0.96500
H         -0.48588        2.59460       -0.01671
H          0.42613        2.08740       -1.45572
H         -1.26609        1.59058       -1.25212
H         -0.50382       -0.86855        1.52137
H         -1.13847        0.76107        1.74031
H         -4.13799       -1.01425       -0.62348
H          2.11218        1.41836        0.21676
H          1.39935        0.92118        1.77946
H          2.42139       -0.71318       -1.42558
H          1.64378       -2.15453       -0.67576
