19

O	3.093545	-0.109328	0.024918
C	1.939433	-0.227371	-0.302052
C	0.789525	0.50328	0.348989
C	-0.107272	1.283949	-0.678049
C	-1.519484	0.699763	-0.431029
C	-1.512294	-0.75421	-0.924247
O	-0.645926	-1.430392	0.01188
C	-0.260559	-0.450771	0.986535
C	-1.495929	0.451334	1.09169
H	1.643743	-0.902027	-1.134722
H	1.211341	1.165957	1.109385
H	-0.072469	2.357502	-0.477465
H	0.218576	1.134679	-1.713141
H	-2.338579	1.30108	-0.826626
H	-2.50826	-1.21476	-0.895989
H	-1.109553	-0.859629	-1.938937
H	0.076505	-0.972781	1.882063
H	-2.371861	-0.083667	1.467418
H	-1.330916	1.355563	1.682596
