19
../xyz/dsC7O2H10nsd_5014.xyz
O         -2.36279        0.55736        0.32321
C         -1.75856       -0.32813       -0.60817
C         -0.33814       -0.62521       -0.21523
C          0.77641       -1.47271       -0.90985
C          1.47616       -0.85903        0.34872
C          0.17921       -1.21718        1.14230
C          0.75669        0.43697       -0.03370
C          1.08801        1.70248       -0.66626
O          0.61583        1.63111        0.71074
H         -1.71344        1.23857        0.53896
H         -2.36701       -1.23955       -0.61901
H         -1.77695        0.08664       -1.63121
H          0.63179       -2.55494       -0.88220
H          1.12314       -1.13453       -1.88990
H          2.51026       -0.99275        0.66279
H         -0.00800       -2.28316        1.29529
H         -0.02738       -0.63331        2.04017
H          2.12751        2.00832       -0.77019
H          0.39704        2.17388       -1.36327
