19

C	2.084024	0.044217	0.080457
C	1.031513	-1.022183	-0.017521
C	1.038177	0.122016	-1.010203
C	-0.25467	0.910149	-0.84049
C	-0.415449	1.435417	0.583861
O	-0.288738	0.344604	1.508279
C	-0.231563	-0.912276	0.833293
C	-1.436145	-1.012202	-0.117482
O	-1.357219	0.023451	-1.104813
H	2.052461	0.727299	0.919662
H	3.083874	-0.225918	-0.240901
H	1.309828	-2.021585	-0.336427
H	1.350315	-0.057395	-2.033064
H	-0.352714	1.723296	-1.563379
H	0.341823	2.19128	0.825091
H	-1.407743	1.892652	0.690271
H	-0.284211	-1.677022	1.612159
H	-1.451825	-1.987169	-0.622863
H	-2.369482	-0.900714	0.450232
