19
../xyz/dsC7O2H10nsd_2599.xyz
C         -0.60457        2.29079        0.31729
C         -0.37400        1.05700       -0.54156
C         -1.29357       -0.15465       -0.29794
O         -2.37115       -0.27907        0.21518
C         -0.14656       -1.15735       -0.50031
O         -0.10102       -2.29073        0.31283
C          0.77489        0.06492       -0.23733
C          2.24214        0.17007       -0.49641
C          1.71927        0.12623        0.92465
H          0.18949        3.03019        0.17113
H         -1.55672        2.76255        0.05802
H         -0.64008        2.02908        1.37865
H         -0.37192        1.32016       -1.60757
H         -0.06298       -1.47931       -1.54657
H         -0.70052       -2.14192        1.05401
H          2.75617       -0.70582       -0.88007
H          2.63118        1.11484       -0.86377
H          1.86061       -0.79005        1.48859
H          1.76670        1.03651        1.51313
