19
../xyz/dsC7O2H10nsd_2339.xyz
O         -2.00350       -0.61338       -1.02794
C         -0.96240       -0.29019       -0.13924
C         -1.44853        0.76579        0.88580
C         -0.35709        1.75866        0.40109
C          0.16401        0.69641       -0.62584
C          1.48283        0.06725       -0.21195
O          2.57778        0.36503       -0.61747
C          1.17875       -1.04267        0.80549
C         -0.23485       -1.52296        0.43906
H         -1.66057       -1.22076       -1.69307
H         -2.47110        1.08468        0.67804
H         -1.38294        0.45988        1.93329
H         -0.74796        2.65636       -0.07983
H          0.37382        2.06652        1.15272
H          0.16207        1.01083       -1.66979
H          1.94961       -1.81501        0.78436
H          1.19595       -0.59460        1.80822
H         -0.16620       -2.28445       -0.35000
H         -0.78320       -1.97043        1.27296
