19

O	-2.731031	0.050226	-0.091722
C	-1.667946	-0.773834	0.382968
C	-0.3784	-0.082504	0.144132
C	0.360744	0.268614	-1.140793
C	0.498018	1.729958	-0.726096
C	0.315657	1.218357	0.730175
C	1.591265	0.36582	1.005118
C	1.026384	-0.586273	-0.044728
O	1.374664	-1.904963	-0.264147
H	-3.560756	-0.381448	0.1344
H	-1.790458	-0.985763	1.45781
H	-1.647391	-1.744093	-0.138612
H	0.181383	-0.15422	-2.122003
H	1.428134	2.263095	-0.957656
H	-0.360568	2.319156	-1.058479
H	-0.095467	1.85935	1.506509
H	2.565194	0.840848	0.834104
H	1.568921	-0.092144	1.998133
H	2.087612	-1.927719	-0.911919
