19
../xyz/dsC7O2H10nsd_2336.xyz
C         -2.14766       -0.61996       -0.86458
C         -0.92927       -0.25071       -0.04703
C         -1.14838        0.84454        1.04974
C         -0.26822        1.82594        0.22634
C          0.16520        0.64053       -0.68977
C          1.46181       -0.02426       -0.24709
O          2.58455        0.34786       -0.46580
C          1.07677       -1.26760        0.56640
O         -0.31273       -1.46145        0.40516
H         -2.65941        0.27680       -1.22706
H         -1.86319       -1.23389       -1.72426
H         -2.85108       -1.19218       -0.25136
H         -2.18363        1.14538        1.22457
H         -0.70600        0.55789        2.00687
H         -0.85177        2.56669       -0.32404
H          0.53592        2.34309        0.75394
H          0.16602        0.80886       -1.76878
H          1.61874       -2.15038        0.21149
H          1.35833       -1.10446        1.61962
