19

O	-1.310331	1.611753	0.293729
C	-1.112638	0.553193	-0.631201
C	-1.708356	-0.747924	-0.032094
C	-0.625829	-1.297112	0.953972
C	0.68439	-0.82884	0.347279
C	0.961187	-1.063613	-1.128699
C	0.364769	0.225558	-0.684331
O	1.355736	1.153566	-0.202239
C	1.661468	0.220777	0.888366
H	-0.493379	2.12838	0.293369
H	-1.568234	0.803382	-1.600153
H	-2.66107	-0.534215	0.458182
H	-1.909007	-1.468316	-0.832244
H	-0.752893	-0.836228	1.938478
H	-0.707646	-2.380417	1.086547
H	1.985776	-1.052105	-1.486433
H	0.312404	-1.770756	-1.633132
H	2.728829	-0.025728	0.912591
H	1.352024	0.641219	1.851124
