19

C	-2.277789	-1.625668	-0.146002
C	-1.359783	-0.510729	0.324177
C	-1.675408	0.857495	-0.291777
C	-0.572552	1.847666	0.086628
O	0.707347	1.322202	-0.248538
C	0.918037	0.077756	0.376697
O	-0.023399	-0.88889	-0.025301
C	2.256896	-0.398682	0.037397
C	3.366012	-0.78853	-0.200195
H	-2.220933	-1.732648	-1.233332
H	-1.986394	-2.576417	0.308081
H	-3.314257	-1.40876	0.129809
H	-1.41812	-0.423531	1.424304
H	-1.718004	0.75735	-1.381913
H	-2.64881	1.21977	0.057713
H	-0.66628	2.792511	-0.453807
H	-0.613471	2.066668	1.167482
H	0.836837	0.216354	1.474479
H	4.34537	-1.133635	-0.42365
