19
../xyz/dsC7O2H10nsd_4914.xyz
C         -0.69382        2.12216       -0.11789
O         -0.93781        1.02427        0.75861
C         -0.33641       -0.17733        0.33376
C         -1.01944       -1.40737        0.91000
C         -1.25785       -1.03965       -0.52943
O         -2.47409       -0.49925       -0.93317
C          1.08489       -0.16571        0.12785
C          2.27561       -0.16428       -0.06294
C          3.71423       -0.16983       -0.28276
H         -1.22226        2.97832        0.30696
H          0.37698        2.34815       -0.17764
H         -1.07324        1.91921       -1.12738
H         -0.39679       -2.26242        1.14531
H         -1.82159       -1.20463        1.61229
H         -0.81736       -1.64994       -1.30945
H         -2.67683        0.20761       -0.30581
H          4.23292        0.43249        0.47129
H          4.11473       -1.18788       -0.22207
H          3.97526        0.23097       -1.26857
