19
../xyz/dsC7O2H10nsd_6057.xyz
O          3.55701       -0.69874        0.26142
C          2.45331       -0.13810       -0.43373
C          1.19503       -0.45690        0.36599
C         -0.05740        0.08994       -0.28527
O         -0.08230        1.53685       -0.34400
C         -1.42347        1.58462        0.17275
C         -1.38455        0.07376        0.53212
C         -2.46601       -0.77943        0.09306
C         -3.36057       -1.48453       -0.29245
H          4.36172       -0.44201       -0.19793
H          2.55085        0.95234       -0.53645
H          2.36466       -0.55951       -1.44890
H          1.09871       -1.54510        0.46841
H          1.29981       -0.03834        1.37338
H         -0.19613       -0.33591       -1.28952
H         -1.52245        2.28450        1.00867
H         -2.15943        1.82994       -0.60266
H         -1.18143       -0.07787        1.59659
H         -4.15205       -2.10906       -0.62575
