19
../xyz/dsC7O2H10nsd_4135.xyz
C          0.22293        2.16165        0.28197
C         -0.22710        0.94525       -0.52246
C         -1.75476        0.61475       -0.39734
C         -1.61741       -0.80488        0.18480
C         -0.55338       -1.46933       -0.71306
C          0.28773       -0.40405        0.04970
O         -0.58023       -0.62092        1.20570
C          1.74687       -0.62901        0.30310
O          2.62191       -0.17747       -0.39264
H          1.30099        2.32094        0.18667
H         -0.28382        3.06659       -0.06803
H         -0.01852        2.02713        1.34108
H          0.08156        1.05189       -1.56589
H         -2.26221        1.28317        0.30234
H         -2.28918        0.63499       -1.35079
H         -2.50446       -1.32527        0.54515
H         -0.31652       -2.48450       -0.39270
H         -0.63198       -1.39150       -1.79967
H          1.96142       -1.28261        1.17716
