19

C	1.276887	1.942418	-0.088096
C	0.981122	0.506078	0.393194
C	2.088766	-0.384269	0.048584
C	3.010835	-1.092378	-0.258297
C	-0.370656	-0.027139	-0.168678
C	-0.649967	-1.47684	0.264129
O	-1.951981	-1.901836	-0.101818
C	-1.512551	0.845107	0.32498
O	-2.1983	1.547912	-0.368706
H	0.475039	2.625497	0.204747
H	2.215333	2.301121	0.341192
H	1.367253	1.970063	-1.177599
H	0.89398	0.524189	1.489923
H	3.827418	-1.720893	-0.515499
H	-0.351852	0.039701	-1.263094
H	0.130716	-2.136821	-0.133806
H	-0.613446	-1.55113	1.357594
H	-2.01552	-1.887437	-1.062554
H	-1.6733	0.789236	1.428381
