19

C	1.211377	1.84876	-0.349845
C	0.744091	0.39196	-0.537259
C	1.826802	-0.554211	-0.267626
C	2.721852	-1.327995	-0.055974
C	-0.493287	0.071283	0.323066
O	-0.165985	0.347591	1.657693
C	-1.816514	0.652958	-0.246109
O	-2.198665	-0.639359	-0.752365
C	-1.148947	-1.293005	-0.009497
H	1.513711	2.018459	0.684597
H	2.059707	2.06245	-1.004075
H	0.403805	2.545576	-0.594978
H	0.430449	0.255527	-1.581087
H	3.512868	-2.010335	0.134207
H	-0.91665	0.114683	2.213767
H	-2.497381	1.011573	0.54067
H	-1.754144	1.408886	-1.03698
H	-1.532731	-1.814188	0.880545
H	-0.574678	-1.996989	-0.619828
