19

O	-1.735779	1.563231	-0.229268
C	-1.349666	0.390773	0.438688
C	-1.92501	-0.970593	-0.01025
O	-0.600621	-1.532962	-0.102492
C	0.016612	-0.254414	0.118511
C	1.333281	-0.155168	0.918176
C	2.034104	-0.765772	-0.335595
C	1.049709	0.303866	-0.901115
C	1.518229	1.241031	0.250339
H	-1.565785	1.443179	-1.170249
H	-1.49452	0.589938	1.503325
H	-2.555069	-1.513622	0.701817
H	-2.43064	-0.931074	-0.985677
H	1.489194	-0.418607	1.964902
H	3.09768	-0.538828	-0.447893
H	1.811398	-1.80832	-0.56368
H	0.888836	0.564837	-1.948804
H	2.550181	1.592113	0.180535
H	0.836376	2.039899	0.547277
