19

C	1.109061	2.044781	-0.324743
C	0.856807	0.614139	0.068421
C	2.005099	-0.400192	0.008285
C	1.300731	-1.730175	-0.152751
C	-0.023408	-1.589334	-0.231462
C	-0.402833	-0.147749	-0.09942
C	-1.723148	0.364991	-0.603264
O	-2.796397	-0.168911	0.158061
O	-0.005866	0.401673	1.197252
H	1.858813	2.492222	0.337463
H	1.489453	2.106134	-1.349648
H	0.198739	2.642948	-0.250498
H	2.678441	-0.187784	-0.832533
H	2.61386	-0.359957	0.919963
H	1.836938	-2.672312	-0.166363
H	-0.755272	-2.379102	-0.342688
H	-1.731176	1.463642	-0.591967
H	-1.887856	0.03589	-1.634837
H	-2.617688	0.057458	1.078206
