19

O	2.736991	-1.342468	0.319352
C	1.922714	-0.455942	-0.404803
C	2.264574	1.053026	-0.382895
O	0.95307	1.371308	0.126498
C	0.655107	-0.030067	0.358374
C	-0.70677	-0.43414	-0.16933
C	-1.844004	0.320171	0.550505
C	-3.165108	-0.030552	0.045653
C	-4.242503	-0.338654	-0.38947
H	3.458044	-1.633661	-0.246938
H	1.70438	-0.832918	-1.412454
H	3.059872	1.290777	0.336041
H	2.46583	1.54931	-1.338892
H	0.751839	-0.275554	1.426862
H	-0.759569	-0.225878	-1.243503
H	-0.834052	-1.515109	-0.037329
H	-1.795477	0.112224	1.627579
H	-1.674797	1.39747	0.437813
H	-5.200614	-0.60043	-0.76418
