19

C	-1.524751	-2.301079	0.146443
C	-1.863102	-0.851622	-0.206065
C	-0.780849	0.13975	0.238831
O	0.431586	-0.189669	-0.487021
C	1.605945	0.010673	0.161827
C	2.764981	-0.328503	-0.743398
O	1.692872	0.404649	1.295403
C	-1.153949	1.52644	-0.028491
C	-1.489921	2.657623	-0.253275
H	-1.400837	-2.428666	1.2274
H	-2.323038	-2.973569	-0.18009
H	-0.597428	-2.616211	-0.339023
H	-2.01055	-0.740094	-1.285559
H	-2.79951	-0.548238	0.274005
H	-0.568162	0.023621	1.306472
H	3.694321	-0.273633	-0.177903
H	2.637625	-1.326422	-1.170604
H	2.797882	0.380572	-1.576114
H	-1.776087	3.663113	-0.440873
