19
../xyz/dsC7O2H10nsd_5428.xyz
O          3.25073        0.28059       -0.38637
C          2.32126       -0.59903        0.22315
C          0.90739       -0.37108       -0.25939
C          0.03588        0.67541        0.38016
C         -0.92952        1.49653       -0.44847
O         -2.11563        1.81128        0.25816
C         -0.25913       -0.80464        0.61680
C         -1.43231       -1.40447        0.05065
C         -2.43754       -1.88424       -0.40723
H          2.96804        1.18106       -0.19430
H          2.65455       -1.60835       -0.04029
H          2.35192       -0.52202        1.32285
H          0.76820       -0.51468       -1.32731
H          0.43810        1.19066        1.24978
H         -0.47014        2.45486       -0.71430
H         -1.14992        0.96749       -1.38704
H         -2.57977        0.97827        0.40281
H          0.00928       -1.18145        1.60036
H         -3.30724       -2.33176       -0.82092
