19

O	-0.530676	2.117943	-0.124225
C	-0.759446	0.796673	-0.562604
C	-1.843853	0.02883	0.213464
C	-1.816406	-1.416062	-0.194447
C	-0.784573	-0.913413	0.779718
C	0.317749	-0.163028	0.033901
C	1.403566	-0.871261	-0.798799
O	2.458553	-0.287544	-0.011092
C	1.510636	0.435833	0.80446
H	-1.277182	2.657382	-0.403806
H	-0.861701	0.758869	-1.658834
H	-2.694793	0.48617	0.704249
H	-2.596883	-2.037938	0.231899
H	-1.530529	-1.698444	-1.20614
H	-0.688628	-1.323074	1.778761
H	1.398223	-1.967874	-0.74067
H	1.462862	-0.56992	-1.853688
H	1.573577	0.146698	1.861661
H	1.626005	1.519512	0.714953
