19

C	1.967213	-0.903395	-0.438178
C	1.593976	-0.027839	0.735156
O	1.401758	1.3241	0.302109
C	0.277502	0.925954	-0.540713
C	-1.0663	1.394577	0.022738
C	-2.129435	0.303825	-0.190553
C	-1.664304	-1.013919	0.430912
O	-0.461448	-1.495679	-0.17633
C	0.530522	-0.546457	-0.224838
H	2.541776	-0.49649	-1.267224
H	2.1942	-1.931673	-0.170421
H	1.86625	-0.205463	1.768392
H	0.425499	1.238902	-1.581407
H	-0.933549	1.565199	1.096947
H	-1.370838	2.346568	-0.422057
H	-3.080805	0.602508	0.263042
H	-2.315884	0.146769	-1.260322
H	-1.503521	-0.881752	1.512715
H	-2.400648	-1.808409	0.286957
