19
../xyz/dsC7O2H10nsd_1205.xyz
C         -0.77699        1.25699        1.33139
C         -0.49555        0.49584        0.02486
O         -0.30501        1.40553       -1.05860
C         -1.60442       -0.43174       -0.27360
C         -2.50648       -1.19158       -0.51097
C          0.79943       -0.32368        0.15253
O          0.73338       -1.27703        1.17639
C          2.12733        0.33962       -0.01621
C          1.62441       -0.64133       -1.06290
H         -1.73088        1.78984        1.26903
H         -0.81607        0.56349        2.17328
H          0.02572        1.97934        1.50040
H         -1.13549        1.87196       -1.19882
H         -3.30785       -1.85390       -0.72998
H          0.08285       -1.93815        0.90790
H          2.14263        1.38977       -0.28063
H          2.91496        0.00959        0.65114
H          1.30802       -0.24112       -2.01774
H          2.08281       -1.62349       -1.08742
