19

C	-0.056085	2.018317	0.360609
C	0.24057	0.832026	-0.546587
C	-0.786078	-0.387581	-0.629624
C	-1.999148	-0.352751	0.263045
O	-3.126037	-0.190737	-0.137609
C	0.368277	-1.295599	-0.168094
O	0.806841	-0.796557	1.10442
C	1.318405	-0.17444	-0.087833
C	2.799773	-0.08493	-0.253884
H	-0.98013	2.52307	0.061588
H	-0.159662	1.699064	1.400932
H	0.754545	2.753185	0.310297
H	0.444246	1.170361	-1.567383
H	-1.106017	-0.563178	-1.658656
H	-1.784739	-0.485457	1.344265
H	0.521778	-2.350354	-0.367415
H	3.060943	0.134087	-1.294114
H	3.214185	0.712932	0.372566
H	3.274138	-1.025613	0.037634
