19
../xyz/dsC7O2H10nsd_3291.xyz
O          2.61331       -0.13128       -0.12113
C          1.24141       -0.08995       -0.45630
C          0.61169        1.18932        0.14411
C         -0.69865        1.64131       -0.54293
C         -1.48904        0.56812        0.26277
O         -1.79365       -0.60176       -0.48868
C         -0.86449       -1.64570       -0.19750
C          0.34028       -0.98677        0.46035
C         -0.22569        0.29436        1.12645
H          2.95146       -1.00279       -0.35319
H          1.08978       -0.22887       -1.53819
H          1.33299        1.94341        0.45572
H         -0.97812        2.65421       -0.23975
H         -0.76319        1.56238       -1.63178
H         -2.39696        0.91499        0.76362
H         -1.32427       -2.38469        0.47695
H         -0.61630       -2.15514       -1.13712
H          0.92201       -1.66113        1.09186
H         -0.26775        0.39764        2.20865
