19

C	3.176542	-1.46267	0.261093
C	2.289203	-0.368383	-0.304019
O	0.94844	-0.640883	0.092245
C	0.014422	0.310685	-0.389758
C	0.129831	1.608484	0.435383
O	0.233051	2.708655	-0.033662
C	-1.339179	-0.20286	-0.228817
C	-2.476221	-0.561806	-0.060659
C	-3.844758	-1.017475	0.126522
H	3.120433	-1.47784	1.353053
H	2.862524	-2.441228	-0.112385
H	4.217152	-1.294483	-0.031521
H	2.611192	0.619112	0.061852
H	2.352153	-0.34097	-1.403581
H	0.212242	0.566262	-1.44244
H	0.120134	1.416088	1.530961
H	-3.876992	-1.907204	0.764429
H	-4.457101	-0.24398	0.602436
H	-4.312704	-1.273785	-0.829945
