19

O	1.516233	1.751205	0.594408
C	0.722549	1.073974	-0.013656
C	-0.753096	1.51112	-0.100417
O	-1.627819	0.554865	-0.645729
C	-1.948982	-0.529625	0.21394
C	-0.718316	-1.279152	0.760376
C	0.34339	-1.458765	-0.304839
C	1.809416	-1.292544	0.028164
C	1.08191	-0.211596	-0.721977
H	-1.060797	1.846397	0.902337
H	-0.798455	2.387304	-0.758332
H	-2.57377	-0.180983	1.051876
H	-2.559474	-1.198039	-0.40129
H	-0.291637	-0.722646	1.604899
H	-1.04616	-2.240937	1.1717
H	0.093453	-2.161321	-1.095139
H	2.083472	-1.087835	1.058206
H	2.531033	-1.893546	-0.513597
H	1.293795	-0.077418	-1.77963
