19
../xyz/dsC7O2H10nsd_2941.xyz
C         -2.16063       -0.47422        1.02016
C         -1.06958       -0.25864       -0.02925
O         -1.35295       -1.20586       -1.05984
C         -1.04773        1.17735       -0.54760
C          0.06433        1.83366       -0.20924
C          1.02262        0.95002        0.51531
C          1.52866       -0.22351       -0.31653
O          2.66713       -0.91500        0.09297
C          0.33628       -0.40462        0.57426
H         -2.01319        0.19431        1.87221
H         -3.14608       -0.28101        0.58690
H         -2.13786       -1.51086        1.37064
H         -0.63602       -1.16205       -1.70156
H         -1.87294        1.56960       -1.13130
H          0.29168        2.86342       -0.46331
H          1.64976        1.31679        1.31972
H          1.38643       -0.15029       -1.39740
H          3.43897       -0.41134       -0.18679
H          0.48208       -1.06196        1.42313
