19

C	-2.367809	1.588087	0.751715
C	-2.602301	0.55637	-0.363644
C	-1.761278	-0.698103	-0.190805
O	-2.242884	-1.79877	-0.023212
C	-0.321566	-0.504195	-0.2349
C	0.876743	-0.35079	-0.264162
C	2.329235	-0.16307	-0.325612
C	3.007317	-0.54007	0.993946
O	2.682765	1.188498	-0.601551
H	-2.638526	1.176692	1.728757
H	-1.319098	1.895568	0.79142
H	-2.977823	2.478889	0.579103
H	-3.647513	0.237575	-0.395259
H	-2.350845	1.004319	-1.333679
H	2.714526	-0.82653	-1.117727
H	2.815001	-1.586868	1.239086
H	4.084461	-0.383581	0.897683
H	2.630131	0.091071	1.801909
H	2.208595	1.465668	-1.392424
