19

O	1.031383	2.053928	-0.190883
C	0.963021	0.760601	0.397986
C	2.302001	-0.019272	0.395538
C	1.930536	-1.495755	0.115374
C	0.540481	-1.395872	-0.462968
C	0.002431	-0.184008	-0.30969
C	-1.375525	0.268328	-0.711178
C	-2.367404	0.121563	0.432103
O	-3.431829	-0.431811	0.343038
H	1.351548	1.943629	-1.093832
H	0.622571	0.962689	1.422417
H	2.917462	0.37286	-0.422582
H	2.871539	0.118353	1.317109
H	2.637227	-1.993651	-0.558081
H	1.921185	-2.090484	1.038923
H	0.037291	-2.242215	-0.919973
H	-1.331295	1.335356	-0.97146
H	-1.763709	-0.288316	-1.56758
H	-2.033492	0.571337	1.394844
