19

O	2.613307	-0.131275	-0.121129
C	1.241406	-0.089946	-0.456304
C	0.611695	1.18932	0.144115
C	-0.69865	1.641314	-0.542933
C	-1.489042	0.568122	0.262765
O	-1.79365	-0.601758	-0.488679
C	-0.864488	-1.645699	-0.197495
C	0.340282	-0.986767	0.460348
C	-0.225686	0.294364	1.126451
H	2.951464	-1.002788	-0.353193
H	1.089776	-0.228869	-1.53819
H	1.332995	1.943407	0.455721
H	-0.978121	2.654212	-0.239747
H	-0.763194	1.562384	-1.631779
H	-2.396963	0.91499	0.763625
H	-1.324273	-2.384685	0.47695
H	-0.616302	-2.15514	-1.137118
H	0.922013	-1.661134	1.091864
H	-0.267748	0.397643	2.208654
