19

C	2.869229	-0.359659	-0.385915
O	2.549828	0.927454	0.147541
C	1.640724	-0.149891	0.387449
C	0.299918	-0.031626	-0.28572
O	-0.410506	-1.29703	-0.244718
C	-1.463594	-0.739304	0.572428
C	-2.667502	-0.233091	-0.254057
C	-2.001969	1.178319	-0.338536
C	-0.811002	0.67201	0.519835
H	2.812027	-0.443529	-1.470365
H	3.717527	-0.860833	0.077244
H	1.612132	-0.502167	1.419862
H	0.439667	0.335545	-1.31162
H	-1.648264	-1.337429	1.468546
H	-2.808037	-0.767676	-1.195953
H	-3.610567	-0.235905	0.299343
H	-1.734167	1.528341	-1.3392
H	-2.584649	1.961505	0.150954
H	-0.505069	1.258201	1.385706
