19

C	1.732318	-1.242076	-0.421071
C	1.898723	-0.065569	0.496596
O	1.644824	1.224002	-0.003249
C	0.361409	1.203925	-0.614414
C	-0.45002	0.053694	0.026245
C	-1.611238	0.400946	0.993566
C	-2.513139	-0.250788	-0.06932
O	-1.382848	-0.523034	-0.924157
C	0.626572	-0.865904	0.556076
H	1.569635	-1.076456	-1.480207
H	2.300123	-2.136418	-0.189105
H	2.652566	-0.05989	1.274594
H	-0.09558	2.188045	-0.478859
H	0.42992	1.004073	-1.693184
H	-1.57479	-0.107831	1.958522
H	-1.769535	1.467925	1.159177
H	-3.022704	-1.171347	0.239704
H	-3.241024	0.410393	-0.554279
H	0.387827	-1.531617	1.376819
