19

C	-1.278809	1.537188	-1.012022
C	-0.025305	0.689825	-0.999846
C	0.795462	0.55104	0.255348
C	0.62475	1.360355	1.506456
C	2.00689	-0.328377	-0.061998
O	1.176456	-1.372637	-0.637926
C	-0.004961	-0.65352	-0.280086
C	-1.134299	-1.392698	0.292279
O	-2.132088	-0.889297	0.761764
H	-1.024886	2.601343	-1.068057
H	-1.888246	1.291741	-1.886937
H	-1.894058	1.362358	-0.129051
H	0.520389	0.662564	-1.942699
H	0.996652	0.816429	2.380785
H	1.180252	2.303527	1.43698
H	-0.4243	1.604792	1.687342
H	2.739649	0.060902	-0.778565
H	2.521545	-0.696533	0.833536
H	-0.984305	-2.494522	0.275174
