19

C	0.435307	1.966112	0.148564
C	0.593421	0.51905	-0.347521
C	1.940923	-0.011428	0.11969
O	2.840394	-0.322318	-0.619457
C	-0.556709	-0.40784	0.147108
C	-0.367556	-1.84803	-0.365944
O	-0.489497	-0.377655	1.577543
C	-1.857767	0.103269	-0.312315
C	-2.939729	0.482567	-0.674931
H	0.459061	2.006636	1.240372
H	1.239459	2.594925	-0.244007
H	-0.519659	2.378567	-0.186226
H	0.599243	0.491733	-1.440902
H	2.054174	-0.066758	1.223444
H	-1.185745	-2.482956	-0.013331
H	-0.362427	-1.876801	-1.458887
H	0.57687	-2.256945	0.002197
H	-1.263092	-0.838042	1.919806
H	-3.892399	0.827223	-0.995054
