19
../xyz/dsC7O2H10nsd_0462.xyz
C         -2.81351       -0.54110       -0.36554
C         -2.67187        0.90211        0.03923
C         -1.60320       -0.09771        0.41765
C         -0.26695       -0.02717       -0.25362
O          0.45553       -1.30044       -0.18527
C          1.52777       -0.71762        0.56861
C          2.63199       -0.09312       -0.30075
O          1.91799        1.17096       -0.35818
C          0.87972        0.67773        0.50525
H         -3.55187       -1.15092        0.14226
H         -2.67102       -0.79332       -1.41098
H         -2.43702        1.62631       -0.73410
H         -3.31037        1.28634        0.82641
H         -1.56460       -0.39991        1.46088
H         -0.36469        0.31973       -1.29035
H          1.79970       -1.29864        1.45151
H          3.60371        0.02641        0.19505
H          2.76508       -0.55353       -1.28545
H          0.63927        1.35468        1.32742
