19

C	3.001845	1.389418	-0.266468
C	2.07536	0.439269	0.458332
C	2.252656	-1.051353	0.352642
C	1.068312	-0.382881	-0.314628
C	-0.298038	-0.586021	0.238138
O	-1.169589	-1.485022	-0.435744
C	-1.504469	-0.090509	-0.470202
C	-2.703717	0.294125	0.327699
O	-3.375927	1.269164	0.109357
H	2.51671	2.352767	-0.456968
H	3.907743	1.579878	0.319056
H	3.312168	0.975619	-1.231703
H	1.731958	0.797707	1.426397
H	3.037872	-1.430777	-0.292668
H	2.064095	-1.660941	1.230317
H	1.100626	-0.30435	-1.397468
H	-0.351947	-0.655788	1.327581
H	-1.385602	0.410415	-1.429337
H	-2.921187	-0.409946	1.162811
