19
../xyz/dsC7O2H10nsd_2787.xyz
C          1.50741        2.16623       -0.12600
C          0.71765        0.89583       -0.41245
C         -0.79665        1.00397       -0.16300
C         -1.47349       -0.31924       -0.34130
O         -2.86830       -0.38610       -0.27975
C         -0.71807       -0.07318        0.94187
C          0.80596       -0.18473        0.71407
C          1.28147       -1.57011        0.36663
O          1.64607       -1.92301       -0.72770
H          2.58444        1.96862       -0.14558
H          1.29385        2.93737       -0.87388
H          1.25541        2.57714        0.85840
H          0.97907        0.50119       -1.39914
H         -1.36178        1.93081       -0.16889
H         -1.10880       -1.03329       -1.07549
H         -3.18998        0.32653        0.28267
H         -1.22148       -0.12732        1.90052
H          1.36335        0.17339        1.58780
H          1.23814       -2.29418        1.21431
