19
../xyz/dsC7O2H10nsd_4365.xyz
C         -2.64695       -0.57336       -0.12885
C         -1.20493       -0.44213        0.35706
C         -0.25892       -1.48278       -0.28350
C          1.18884       -1.36738        0.22532
C          1.73429        0.03796        0.02374
O          2.79544        0.27193       -0.49880
C          0.81664        1.15363        0.52861
C         -0.64188        0.95759        0.11231
O         -1.28212        1.85020       -0.38761
H         -3.28726        0.17786        0.33867
H         -2.70770       -0.42413       -1.21078
H         -3.04263       -1.56609        0.10558
H         -1.16961       -0.60057        1.44694
H         -0.63983       -2.48761       -0.07686
H         -0.27628       -1.36014       -1.37417
H          1.21206       -1.58819        1.30219
H          1.85499       -2.07337       -0.27506
H          0.84691        1.11697        1.62768
H          1.18023        2.12706        0.19897
