19

C	0.276555	2.28418	0.135169
O	0.850435	1.157675	-0.500792
C	0.951947	-0.008794	0.301783
C	-0.179269	-1.01727	-0.010284
C	-1.535015	-0.594927	0.498155
C	-2.779409	-0.963139	-0.188828
O	-2.265045	0.366663	-0.268791
C	2.261842	-0.623824	0.064986
C	3.321871	-1.154787	-0.128879
H	0.808215	2.536347	1.065219
H	0.38241	3.119135	-0.561816
H	-0.788983	2.143521	0.352322
H	0.892471	0.267458	1.367741
H	-0.213018	-1.16311	-1.094061
H	0.08096	-1.978189	0.449869
H	-1.5927	-0.425103	1.576181
H	-2.729864	-1.536899	-1.113376
H	-3.70053	-1.0778	0.380755
H	4.266798	-1.60869	-0.298794
