19

C	-2.82035	-0.479141	-0.410412
C	-1.382778	-0.00984	-0.434014
C	-0.807128	0.744261	0.725848
C	0.277397	1.778904	0.520486
C	1.243781	1.358607	-0.584122
O	1.779324	0.040056	-0.405644
C	1.019625	-0.984615	0.071295
O	1.518161	-2.074518	0.170339
C	-0.380223	-0.693906	0.491583
H	-3.135684	-0.733131	0.606787
H	-3.492585	0.301548	-0.782788
H	-2.957709	-1.367869	-1.034731
H	-1.018562	0.250765	-1.422885
H	-1.468215	0.914979	1.57072
H	-0.145588	2.755399	0.255302
H	0.834056	1.909931	1.456038
H	0.764042	1.417274	-1.568515
H	2.114543	2.018103	-0.608351
H	-0.776122	-1.476927	1.126875
