19
../xyz/dsC7O2H10nsd_3852.xyz
C          2.98506       -0.23269        0.49200
C          1.84610        0.03489       -0.46912
C          0.86023        1.18076       -0.14050
C         -0.18604        0.06943       -0.09727
O          0.77688       -0.94937       -0.34636
C         -1.30441       -0.09298        0.96181
C         -2.01188       -1.10923        0.03452
C         -1.56046        0.10112       -0.81581
O         -2.01391        1.00737        0.26619
H          3.75421        0.54148        0.39470
H          2.62791       -0.24033        1.52661
H          3.44687       -1.20212        0.28057
H          2.21353        0.05487       -1.50299
H          1.04107        1.67695        0.81521
H          0.71904        1.93471       -0.91556
H         -1.25423       -0.05274        2.05047
H         -1.51969       -2.06743       -0.14147
H         -3.08966       -1.18941        0.18118
H         -1.81449        0.37213       -1.84112
