19
../xyz/dsC7O2H10nsd_1101.xyz
C         -2.30730       -0.83226        0.48817
C         -1.50513        0.20751       -0.26026
O         -1.91562        1.32953       -0.46164
C         -0.12687       -0.17117       -0.78231
C          0.66218       -1.36924       -0.20171
C          1.98682       -0.70056       -0.62642
C          1.08482        0.36400        0.05157
C          1.37765        1.76353        0.48355
O          0.75192       -0.65748        1.09583
H         -2.43242       -1.73317       -0.12419
H         -1.75227       -1.12496        1.38487
H         -3.28394       -0.42821        0.75766
H         -0.06882       -0.00056       -1.86190
H          0.40032       -2.42665       -0.17290
H          2.85733       -1.00108       -0.04184
H          2.19928       -0.59213       -1.69297
H          1.66982        2.36695       -0.38120
H          0.49150        2.21871        0.93355
H          2.19577        1.77388        1.20985
