19

C	-2.076823	-1.002164	-0.832226
C	-1.196199	-0.145605	0.045258
C	-1.658398	1.182912	0.563168
C	-0.530639	1.118488	-0.450242
C	0.917987	1.30711	-0.009708
C	1.666845	-0.017784	-0.077145
O	2.801617	-0.137773	-0.469988
C	0.855257	-1.228213	0.394596
O	-0.395961	-0.869139	0.95509
H	-1.484974	-1.688589	-1.448122
H	-2.758578	-1.600395	-0.219209
H	-2.67478	-0.381582	-1.505863
H	-2.622991	1.55259	0.232858
H	-1.398191	1.42905	1.58702
H	-0.756651	1.434613	-1.463676
H	1.45043	2.03981	-0.619234
H	0.963034	1.655089	1.030223
H	0.749069	-1.92558	-0.450917
H	1.420201	-1.748164	1.173896
