19

O	1.987919	-1.293686	0.696524
C	1.166721	-0.871631	-0.360224
C	-0.243176	-1.497198	-0.533217
C	-0.823283	-0.089698	-0.829331
C	-2.072858	0.314127	-0.09316
O	-2.558498	-0.302326	0.822459
C	0.503046	0.515843	-0.285505
C	1.116637	1.861341	-0.504003
C	0.66469	1.452863	0.879624
H	1.458314	-1.284703	1.501824
H	1.776773	-0.976095	-1.263352
H	-0.366157	-2.264237	-1.299505
H	-0.641785	-1.868053	0.41577
H	-0.945104	0.12633	-1.896462
H	-2.52753	1.273603	-0.431879
H	2.183467	1.901925	-0.70197
H	0.535998	2.614048	-1.02836
H	1.4323	1.200477	1.604364
H	-0.212312	1.930915	1.302603
