19

C	-1.703826	1.543733	-0.001224
C	-0.541024	0.572611	-0.041362
O	0.625169	1.374831	-0.206734
C	1.783725	0.733183	0.247326
O	1.856622	-0.594867	-0.209311
C	0.609212	-1.22152	-0.062408
C	-0.578046	-0.712015	-0.936865
C	-1.499589	-1.368933	0.1228
C	-0.423068	-0.637497	0.964952
H	-1.62047	2.191018	0.877049
H	-1.668493	2.183627	-0.887962
H	-2.673903	1.045811	0.024143
H	2.646068	1.274608	-0.148374
H	1.808007	0.741296	1.351079
H	0.773571	-2.30082	-0.041953
H	-0.660303	-0.75411	-2.023352
H	-2.524596	-1.009914	0.197784
H	-1.466652	-2.460697	0.167366
H	-0.351858	-0.607908	2.053268
