19

O	-2.621281	-0.529912	-0.024832
C	-1.369067	-0.191405	-0.572196
C	-1.003141	1.319001	-0.427322
C	0.317204	0.912545	0.262308
C	0.030288	0.13592	1.531343
C	-0.092684	-0.546775	0.202371
O	0.929958	-1.356461	-0.286003
C	2.136159	-0.570059	-0.262881
C	1.722543	0.937704	-0.297407
H	-2.695337	-1.490356	-0.016047
H	-1.269822	-0.528865	-1.612668
H	-0.869701	1.822792	-1.386593
H	-1.697337	1.89793	0.187806
H	0.886339	-0.155169	2.129435
H	-0.862192	0.368984	2.104245
H	2.70122	-0.790677	0.652631
H	2.750369	-0.871916	-1.116175
H	2.44214	1.550125	0.254986
H	1.697091	1.306555	-1.32824
