19

C	-3.046219	0.785515	0.313143
O	-2.309871	-0.289423	-0.236207
C	-0.998225	-0.334553	0.227512
C	-0.074093	-1.07704	-0.686373
C	1.365805	-1.160919	-0.10272
O	1.407399	-0.496275	1.174897
C	1.466457	0.297412	-0.02781
C	2.586504	1.268301	-0.192276
C	0.014224	0.447692	-0.590569
H	-2.608977	1.757549	0.043118
H	-4.058487	0.721693	-0.092373
H	-3.095651	0.721239	1.410359
H	-0.893138	-0.403638	1.307515
H	-0.44566	-1.674459	-1.507513
H	2.104021	-1.933722	-0.284495
H	2.690519	1.563732	-1.2415
H	2.40419	2.175186	0.395825
H	3.526521	0.823254	0.144355
H	-0.29028	1.1763	-1.330257
