19

C	-1.405051	-0.569312	1.406931
C	-0.797886	-0.327756	0.023211
C	-1.87175	-0.3291	-1.069997
O	0.172076	-1.348345	-0.279391
C	1.434137	-0.786472	-0.534885
C	2.146506	-0.18316	0.625898
C	1.389883	0.712218	-0.367604
C	-0.030887	1.013285	-0.032211
O	-0.545179	2.096188	0.099328
H	-0.632729	-0.610398	2.179594
H	-2.097163	0.240811	1.652038
H	-1.949785	-1.517659	1.41844
H	-1.419622	-0.190265	-2.056173
H	-2.404827	-1.284036	-1.06683
H	-2.582396	0.483123	-0.895668
H	1.970324	-1.278697	-1.338498
H	1.739495	-0.330462	1.619637
H	3.226884	-0.099686	0.581505
H	1.944939	1.4263	-0.961611
