19
../xyz/dsC7O2H10nsd_5622.xyz
C          1.41405       -1.85425       -0.55473
C          0.88134       -0.52109       -0.10635
O          1.25633       -0.09558        1.21277
C          1.68491        0.70197        0.07731
C          0.79199        1.86613       -0.19408
C         -0.43958        1.43931       -0.48478
C         -0.53985       -0.07383       -0.49071
C         -1.62076       -0.61072        0.46346
O         -2.91891       -0.13657        0.14115
H          1.37758       -1.94185       -1.64580
H          2.44839       -1.98203       -0.22628
H          0.82269       -2.67474       -0.13229
H          2.76082        0.73957       -0.06825
H          1.11164        2.89811       -0.11872
H         -1.30935        2.06404       -0.64770
H         -0.77280       -0.43916       -1.50369
H         -1.59021       -1.71138        0.47867
H         -1.40682       -0.25924        1.47547
H         -3.17394       -0.52129       -0.70346
