19

C	3.424276	0.17149	-0.300766
C	2.168628	-0.693493	-0.430138
C	1.055469	-0.25601	0.533747
O	0.676134	1.101226	0.281426
C	-0.727041	1.202828	0.039993
C	-1.233681	-0.214387	0.102529
C	-2.628186	-0.596817	-0.119395
O	-3.509759	0.193532	-0.375958
C	-0.220109	-1.034684	0.395215
H	3.184336	1.221305	-0.486444
H	3.853834	0.096672	0.704485
H	4.190451	-0.139968	-1.016616
H	1.777396	-0.645463	-1.453211
H	2.407849	-1.745203	-0.226192
H	1.443095	-0.331977	1.565813
H	-1.200618	1.84117	0.79958
H	-0.911686	1.668892	-0.93717
H	-2.833332	-1.686716	-0.035741
H	-0.278475	-2.110344	0.514643
