19
../xyz/dsC7O2H10nsd_3961.xyz
O          2.81377        0.02699       -0.43721
C          1.62005        0.14515        0.30237
C          0.84881       -1.18748        0.60710
C         -0.38859       -0.52748        0.02745
O         -1.46984       -1.18327       -0.61339
C         -2.39286       -0.16374       -0.14023
C         -1.30079        0.52052        0.71740
C         -0.51322        1.68436        0.04987
C          0.44583        0.64656       -0.59036
H          3.46279       -0.42626        0.11128
H          1.76612        0.76502        1.19892
H          1.21742       -1.97086       -0.06361
H          0.81396       -1.56464        1.63343
H         -2.79516        0.44004       -0.96351
H         -3.22153       -0.61398        0.41669
H         -1.48333        0.55157        1.79232
H         -1.09931        2.26785       -0.66624
H         -0.03884        2.37994        0.74906
H          0.71113        0.71424       -1.64515
