19
../xyz/dsC7O2H10nsd_0696.xyz
O          2.76239       -1.30011       -0.15555
C          2.05199       -0.35395       -0.00629
C          2.10735        1.14341       -0.33283
O          0.77126        1.29240        0.18647
C          0.64812       -0.10575        0.56594
C         -0.51732       -0.83644       -0.09120
C         -1.86644       -0.40123        0.44143
C         -2.50760        0.86751       -0.06057
C         -3.09080       -0.47149       -0.43659
H          2.85620        1.71287        0.23308
H          2.18871        1.39638       -1.39750
H          0.60720       -0.21344        1.66019
H         -0.47063       -0.67119       -1.17450
H         -0.36711       -1.91166        0.07384
H         -2.02109       -0.62959        1.49346
H         -3.04859        1.48534        0.64730
H         -1.97387        1.42754       -0.81972
H         -4.02975       -0.77180        0.01508
H         -2.96205       -0.81516       -1.45793
