19
../xyz/dsC7O2H10nsd_3741.xyz
C         -2.24827        0.93997       -0.66204
C         -1.76499       -0.32292        0.00091
O         -1.03229       -0.17077        1.23230
C         -0.34511       -0.67277        0.09666
C          0.38163       -2.01885        0.09227
C          1.62477       -1.30597       -0.52095
C          0.86784        0.06111       -0.53248
C          1.42614        1.15402        0.34375
O          1.34362        2.32957        0.09635
H         -2.56402        0.73344       -1.69067
H         -3.10880        1.34937       -0.12328
H         -1.46177        1.69861       -0.68000
H         -2.47911       -1.14866        0.02711
H          0.53311       -2.42656        1.09486
H         -0.07340       -2.79044       -0.53399
H          2.50678       -1.31252        0.12492
H          1.92043       -1.65421       -1.51126
H          0.66373        0.47787       -1.52148
H          1.92029        0.79515        1.27580
