19

C	0.609822	0.824408	1.645339
C	0.400253	0.036353	0.335706
C	1.555121	-0.946079	0.168322
O	2.361696	-0.933457	-0.724992
C	0.341197	0.987211	-0.860413
O	-0.183449	2.072063	-0.815644
C	-0.890583	-0.793197	0.432756
C	-2.252633	-0.163902	0.298112
C	-1.759154	-1.121771	-0.757758
H	-0.199127	1.547614	1.761949
H	0.605747	0.148867	2.506452
H	1.558877	1.368617	1.635907
H	1.60705	-1.711723	0.97788
H	0.80305	0.606086	-1.791064
H	-0.807466	-1.577466	1.182606
H	-3.031922	-0.494369	0.975469
H	-2.294866	0.887863	0.038304
H	-2.194916	-2.113118	-0.808815
H	-1.49653	-0.709364	-1.725987
