19
../xyz/dsC7O2H10nsd_5584.xyz
O         -2.97613       -0.83698       -0.07613
C         -2.31458        0.41768       -0.17766
C         -0.84196        0.16806       -0.36605
C          0.13285        1.15694        0.22625
O          1.41548        1.27566       -0.33877
C          2.19130        0.14093       -0.02519
C          1.87371       -1.16924       -0.69585
C          1.33125       -0.87155        0.69066
C         -0.01858       -0.20659        0.85350
H         -3.92288       -0.67163       -0.03194
H         -2.70068        1.00207       -1.02790
H         -2.47343        1.02267        0.73090
H         -0.58370       -0.28334       -1.31727
H         -0.22333        2.08511        0.66296
H          3.21074        0.39233        0.24766
H          1.20811       -1.18176       -1.54984
H          2.68131       -1.89218       -0.75315
H          1.70157       -1.44675        1.53027
H         -0.53647       -0.35335        1.79361
