19
../xyz/dsC7O2H10nsd_3569.xyz
C          2.36851       -1.25175        0.04404
C          1.05324       -0.64920       -0.46301
C         -0.15026       -1.18430        0.33147
C         -1.47606       -0.50348        0.03563
O         -2.53104       -1.07587        0.03471
O         -1.45627        0.83543       -0.19830
C         -0.25212        1.56742       -0.31285
C          0.73486        1.64439        0.81813
C          1.06388        0.86863       -0.44853
H          3.21572       -0.91061       -0.55937
H          2.55659       -0.95776        1.08243
H          2.34323       -2.34549        0.00065
H          0.91916       -0.95580       -1.50980
H         -0.29932       -2.25141        0.15597
H          0.03472       -1.07246        1.40805
H         -0.45369        2.46085       -0.89132
H          1.23533        2.59046        0.99127
H          0.50928        1.09109        1.72263
H          1.78515        1.32447       -1.12099
