19
../xyz/dsC7O2H10nsd_1942.xyz
C          2.28593        0.56301       -0.60030
C          1.09787       -0.09682        0.03832
C          1.14796       -1.43441        0.73219
C          0.24694       -1.25072       -0.46680
C         -1.05081       -0.43105       -0.18625
O         -2.09825       -0.40447       -1.08655
C         -1.18254        0.01630        1.25551
C         -0.21205        0.71540        0.34038
O         -0.28946        2.08633        0.18922
H          2.82478        1.19782        0.11271
H          2.98810       -0.18633       -0.97918
H          1.99469        1.19696       -1.44684
H          2.05061       -2.00683        0.53072
H          0.75942       -1.59735        1.73107
H          0.37177       -1.80746       -1.38804
H         -2.73462       -1.08391       -0.83544
H         -2.07253        0.62321        1.39994
H         -0.90237       -0.57701        2.12017
H         -0.17794        2.29576       -0.74475
