19
../xyz/dsC7O2H10nsd_5189.xyz
O         -2.48655       -0.52483       -0.33486
C         -1.50401       -0.75710        0.66285
C         -0.11369       -0.45171        0.15520
C          0.76348       -1.43430       -0.66760
C          1.95624       -0.63219       -0.14239
C          1.54258        0.84528       -0.09568
C          1.17315       -0.10349        1.03087
C          0.10421        0.90592       -0.58680
O         -0.67127        1.97252       -0.06458
H         -2.48353        0.42781       -0.48927
H         -1.70565       -0.15524        1.56350
H         -1.59415       -1.80929        0.95441
H          0.74836       -2.44416       -0.24655
H          0.58601       -1.48384       -1.74784
H          3.00469       -0.90219       -0.16057
H          2.28166        1.63729       -0.09661
H          1.38523       -0.10014        2.09034
H         -0.08526        0.91102       -1.66494
H         -0.40655        2.10273        0.85438
