19
../xyz/dsC7O2H10nsd_0218.xyz
C          1.70481        0.39371       -0.64245
O          1.36402       -1.00198       -0.67071
C          0.31325       -1.21269        0.27796
C          0.56886       -0.16750        1.36544
C          0.83334        1.04753        0.45407
C         -0.49998        1.57920       -0.10832
C         -1.40008        0.46270       -0.62175
O         -2.05605       -0.35312        0.36254
C         -1.01580       -0.94387       -0.42118
H          2.77408        0.48241       -0.41263
H          1.53283        0.83654       -1.63164
H          0.38296       -2.24853        0.62043
H         -0.27852       -0.03172        2.03765
H          1.45644       -0.43993        1.94310
H          1.37387        1.85297        0.95746
H         -1.04106        2.14431        0.66032
H         -0.30319        2.27651       -0.93130
H         -2.04161        0.71193       -1.46647
H         -1.34601       -1.69828       -1.13424
