19

O	-2.641505	-0.529707	-0.481232
C	-1.83024	0.514161	-0.046166
C	-1.100903	0.420422	1.283252
C	-0.346116	0.321745	-0.033216
C	0.654259	1.370767	-0.465911
C	2.052351	0.89017	-0.163571
C	2.303767	-0.380924	0.138718
C	1.223748	-1.426423	0.160035
O	0.018712	-0.973695	-0.444215
H	-2.045547	-1.258491	-0.7007
H	-2.218799	1.484073	-0.345674
H	-0.98562	1.313363	1.889243
H	-1.239323	-0.501548	1.838725
H	0.549735	1.579926	-1.540574
H	0.455671	2.316847	0.051111
H	2.856676	1.619715	-0.197549
H	3.307557	-0.717254	0.383356
H	1.52884	-2.31218	-0.408838
H	1.031951	-1.756747	1.195629
