19
../xyz/dsC7O2H10nsd_1768.xyz
C          2.38034       -0.87484       -0.03802
C          0.98674       -0.31833        0.01813
C          0.00009       -0.49726        1.19584
C         -0.98673       -0.31834        0.01824
C         -2.38033       -0.87487       -0.03796
O         -0.00006       -1.01552       -0.83613
C         -0.72801        1.14983       -0.43550
O          0.00000        1.96062        0.50292
C          0.72794        1.14983       -0.43557
H          2.80084       -0.76090       -1.04298
H          3.02871       -0.34276        0.66551
H          2.38517       -1.93763        0.21704
H          0.00008       -1.53100        1.54306
H          0.00017        0.22057        2.01363
H         -2.38579       -1.93685        0.22043
H         -3.02967       -0.34043        0.66287
H         -2.79922       -0.76403       -1.04394
H         -1.36962        1.66806       -1.14040
H          1.36950        1.66806       -1.14052
