19

C	-0.116934	-2.265433	-0.569809
C	-0.352255	-0.925108	0.093397
C	0.866294	-0.200569	0.63563
C	1.829944	0.298104	-0.449172
O	2.922259	1.019138	0.095503
O	-1.503828	-0.884636	0.945762
C	-1.562021	-0.1502	-0.289627
C	-1.632251	1.284812	-0.217037
C	-1.706969	2.484687	-0.194199
H	0.530601	-2.168137	-1.446693
H	0.36784	-2.952727	0.132175
H	-1.06342	-2.71188	-0.883522
H	0.536541	0.65469	1.229895
H	1.401067	-0.881867	1.312946
H	2.180091	-0.538238	-1.074249
H	1.30865	1.000634	-1.107112
H	3.428034	0.415518	0.64908
H	-2.222856	-0.596465	-1.033339
H	-1.768837	3.544692	-0.164405
