19

O	2.95053	-0.529424	0.286608
C	1.764918	-0.159918	-0.409047
C	0.513076	-0.979385	-0.01061
C	-0.641278	0.033235	0.110212
C	-1.832295	-0.285204	1.048846
C	-2.69388	-0.231855	-0.223669
O	-1.541177	0.027604	-1.048072
C	0.075717	1.349907	0.248825
C	1.37163	1.247172	-0.034497
H	3.253464	-1.369208	-0.072227
H	1.943576	-0.214232	-1.495306
H	0.259066	-1.779265	-0.710675
H	0.717022	-1.420829	0.970493
H	-1.774738	-1.261754	1.53338
H	-2.043218	0.475277	1.803471
H	-3.197758	-1.165125	-0.503673
H	-3.42254	0.587261	-0.269179
H	-0.45248	2.264531	0.495432
H	2.095451	2.054194	-0.040357
