19
../xyz/dsC7O2H10nsd_2497.xyz
C         -1.91412        1.31848        0.00182
C         -0.60432        0.55070        0.03084
C          0.61703        1.46811        0.14389
O          1.80863        0.86339       -0.31883
C          1.96033       -0.46490        0.14600
C          0.65347       -1.23536        0.04666
C         -0.44700       -0.69392       -0.90931
O         -1.45644       -1.41562       -0.10473
C         -0.56631       -0.76155        0.87586
H         -1.96525        1.97152       -0.87655
H         -2.75858        0.62847       -0.02496
H         -2.01113        1.95535        0.88901
H          0.47685        2.36185       -0.47287
H          0.72403        1.80593        1.19083
H          2.73011       -0.92072       -0.48485
H          2.33199       -0.48211        1.18607
H          0.77149       -2.32017        0.02706
H         -0.52537       -0.76242       -1.99499
H         -0.78626       -0.90922        1.93513
