19
../xyz/dsC7O2H10nsd_0087.xyz
C          3.62386        0.55548        0.30906
C          2.66123       -0.08446       -0.01778
C          1.49798       -0.87317       -0.39729
C          0.19144       -0.33812        0.18769
O         -0.80915       -1.28645       -0.09749
C         -2.07903       -0.87446        0.39501
C         -2.45555        0.49469       -0.17528
C         -1.29772        1.46174        0.08068
O         -0.07877        0.90746       -0.39899
H          4.47370        1.12679        0.58888
H          1.38328       -0.89657       -1.48673
H          1.61061       -1.90937       -0.06100
H          0.27142       -0.21377        1.28525
H         -2.79078       -1.65106        0.10413
H         -2.05315       -0.83028        1.49729
H         -2.62281        0.40596       -1.25368
H         -3.37783        0.86389        0.28686
H         -1.43238        2.41206       -0.44159
H         -1.21183        1.67411        1.15995
