19

C	1.970377	-1.447397	-0.384066
C	0.654177	-0.702985	-0.564863
C	-0.48931	-0.993112	0.483856
C	0.204097	0.06627	1.405511
C	0.548333	0.728969	0.033491
O	1.628846	1.585854	-0.15196
C	-0.849371	1.167764	-0.455067
C	-1.601073	-0.141317	-0.106955
O	-2.761187	-0.401948	-0.272537
H	2.320893	-1.462901	0.650653
H	1.868403	-2.484869	-0.717869
H	2.749951	-0.973774	-0.988503
H	0.342346	-0.776797	-1.613292
H	-0.742455	-1.996648	0.817728
H	-0.424557	0.621026	2.108121
H	1.077796	-0.331525	1.919444
H	1.395946	2.458572	0.182341
H	-1.263538	2.021639	0.092685
H	-0.889432	1.384874	-1.526772
