19

C	-1.093259	-1.297275	-0.647826
C	-1.713994	1.3e-05	-0.069268
C	-1.093237	1.297287	-0.647827
C	0.001984	1.275858	0.472268
O	1.367633	1.173415	0.115372
C	1.677794	-9e-06	-0.589396
O	1.367619	-1.173428	0.115369
C	0.001966	-1.275861	0.472265
C	-0.634266	0.0	1.080797
H	-1.740569	-2.173467	-0.562901
H	-0.737945	-1.239099	-1.680593
H	-2.786901	2e-05	0.118058
H	-0.73792	1.239104	-1.680594
H	-1.74053	2.173491	-0.562906
H	-0.054002	2.147841	1.125981
H	1.174514	-2e-06	-1.571181
H	2.759874	-1.4e-05	-0.733614
H	-0.054026	-2.147848	1.125972
H	-0.846436	3e-06	2.149775
