19

C	-1.356915	-1.124762	-0.009874
O	-2.514557	-0.259645	-0.024615
C	-1.69842	0.925336	0.061882
C	-0.413295	0.080818	0.028764
C	0.763177	0.315253	1.022403
C	1.259345	1.392627	0.005455
C	0.716409	0.342073	-0.992094
O	1.585778	-0.787025	-0.808593
C	1.668819	-0.860192	0.636533
H	-1.340713	-1.772272	0.877899
H	-1.292328	-1.751202	-0.907778
H	-1.861043	1.599901	-0.789271
H	-1.876928	1.481286	0.992607
H	0.606666	0.517999	2.081623
H	0.671057	2.311276	0.037513
H	2.32851	1.613016	-0.036157
H	0.552829	0.516054	-2.054784
H	1.299184	-1.832126	0.984068
H	2.708288	-0.737482	0.961533
