19

O	2.50557	-0.063558	-0.24098
C	1.485677	-1.055283	-0.403423
C	0.151659	-0.626347	0.16991
C	0.069081	0.227119	1.441413
C	-0.344051	0.810041	0.110258
O	0.377654	1.850384	-0.468142
C	-1.825614	0.780081	-0.252288
C	-2.147374	-0.698706	-0.286815
C	-1.06671	-1.456595	-0.080772
H	2.795508	-0.084489	0.676402
H	1.392699	-1.201511	-1.485135
H	1.811603	-2.013458	0.027989
H	-0.671697	-0.036199	2.19037
H	0.998122	0.622967	1.843308
H	1.302949	1.566937	-0.50193
H	-2.445994	1.327987	0.467241
H	-1.978594	1.256155	-1.229295
H	-3.15275	-1.073095	-0.44329
H	-1.053646	-2.541767	-0.06238
