19

C	-2.924201	-1.042801	0.101442
C	-1.691554	-0.217691	0.397288
C	-1.040696	0.564714	-0.714147
O	-0.294255	1.711741	-0.40336
C	0.646097	1.37347	0.609623
C	0.911987	-0.158244	0.508284
C	2.122207	-0.438191	-0.358436
O	3.075499	-1.089672	-0.017849
C	-0.353994	-0.662783	-0.181463
H	-2.999907	-1.90294	0.775406
H	-3.834473	-0.444377	0.213449
H	-2.904583	-1.428318	-0.923627
H	-1.669905	0.232253	1.386584
H	-1.501469	0.63075	-1.693181
H	1.542506	1.982219	0.451884
H	0.250554	1.611838	1.605401
H	1.087747	-0.601667	1.492151
H	2.069817	0.02341	-1.372217
H	-0.309312	-1.590569	-0.741724
