19

C	2.448562	-0.772336	-0.312679
C	1.1842	-0.546736	0.497601
O	0.067122	-1.169617	-0.167162
C	-1.053841	-0.32101	-0.038478
C	-2.370955	-1.03333	-0.113906
C	-0.891885	1.096189	-0.576486
O	0.492327	1.402599	-0.738228
C	0.736198	0.908235	0.618342
C	-0.778164	0.819152	0.90565
H	2.608446	-1.841595	-0.473974
H	2.359332	-0.276291	-1.281283
H	3.319019	-0.372205	0.217778
H	1.291011	-0.979408	1.507116
H	-2.451235	-1.588221	-1.053714
H	-2.478221	-1.743097	0.712584
H	-3.199258	-0.31997	-0.066562
H	-1.612345	1.64579	-1.172915
H	1.377468	1.575741	1.195552
H	-1.334507	1.134408	1.778284
