19
../xyz/dsC7O2H10nsd_0745.xyz
O          2.59537       -0.23724       -0.05346
C          1.39683       -0.07625       -0.00245
C          0.83813        1.33709        0.24392
O         -0.37644        1.63900       -0.40647
C         -1.54880        1.07021        0.15141
C         -1.60594       -0.46185        0.07686
C         -0.63729       -1.18958        1.04759
C          0.42654       -1.23456       -0.09815
C         -0.75810       -1.02356       -1.09965
H          0.75123        1.48092        1.33588
H          1.58516        2.04478       -0.12256
H         -1.67496        1.40122        1.19642
H         -2.36712        1.49809       -0.43630
H         -2.65308       -0.77352        0.12955
H         -0.36702       -0.68722        1.98131
H         -0.98531       -2.19760        1.28474
H          1.01277       -2.14779       -0.20504
H         -0.58956       -0.37144       -1.95739
H         -1.13178       -1.99042       -1.44438
