19
../xyz/dsC7O2H10nsd_6061.xyz
C          4.05260        1.09755       -0.02866
C          3.27821       -0.19926        0.12799
O          1.90198        0.07720       -0.05465
C          1.09889       -1.07820        0.07475
C         -0.30540       -0.74124       -0.11145
C         -1.47243       -0.48102       -0.25281
C         -2.86420       -0.18387       -0.44805
C         -3.42656        1.13856       -0.10667
O         -3.67698        0.01294        0.72259
H          3.89432        1.52070       -1.02452
H          3.72386        1.83169        0.71208
H          5.12344        0.91996        0.10820
H          3.61691       -0.94636       -0.61030
H          3.44846       -0.63568        1.12718
H          1.39718       -1.84217       -0.66476
H          1.23720       -1.53726        1.06956
H         -3.36116       -0.75428       -1.23199
H         -2.76723        1.89579        0.31278
H         -4.27964        1.51135       -0.67236
