19

C	2.729809	0.08176	-0.19353
C	1.261247	0.35355	-0.199301
C	0.629288	1.529652	-0.112891
C	-0.855114	1.374414	-0.07634
C	-1.384821	0.610077	1.136278
C	-1.101163	-0.119181	-0.143256
O	-2.212343	-0.687303	-0.762365
C	0.262288	-0.79837	-0.300007
O	0.514633	-1.869849	0.597833
H	3.049312	-0.381679	-1.136442
H	3.311861	0.995606	-0.047702
H	2.987223	-0.63024	0.598796
H	1.121284	2.494039	-0.032764
H	-1.513796	2.082274	-0.566175
H	-0.731645	0.503278	1.997446
H	-2.439651	0.719962	1.363694
H	-2.057372	-0.687154	-1.713571
H	0.322166	-1.266682	-1.294762
H	0.283097	-1.563606	1.482012
