19

C	-2.655233	-0.80652	0.127012
O	-1.552987	-0.436741	-0.685999
C	-0.570743	0.244692	-0.002853
C	-0.689506	1.70409	0.346936
C	0.417199	1.251051	-0.583919
C	1.533931	0.62575	0.235969
O	2.236826	-0.407331	-0.474999
C	1.364642	-1.434234	0.049709
C	0.522656	-0.413563	0.837255
H	-3.137781	0.07472	0.571561
H	-3.369269	-1.321301	-0.519265
H	-2.353904	-1.486281	0.936445
H	-1.50625	2.213069	-0.154671
H	-0.466979	2.078506	1.34406
H	0.510655	1.613761	-1.599769
H	2.203418	1.270339	0.812722
H	0.835886	-1.981978	-0.738701
H	1.921762	-2.142245	0.675031
H	0.35407	-0.593619	1.899911
