19

O	0.559862	1.913342	0.306958
C	-0.061382	0.942178	-0.506021
C	-1.604749	0.957531	-0.303035
C	-1.806765	-0.481241	0.214415
C	-0.644317	-0.624765	1.236903
C	0.23028	-0.511409	-0.061603
C	-0.914716	-1.305376	-0.761024
C	1.654873	-0.942432	-0.048734
O	2.590515	-0.173017	-0.097079
H	1.508539	1.735119	0.250529
H	0.219394	1.080911	-1.560052
H	-1.877198	1.718418	0.432223
H	-2.152309	1.153391	-1.228714
H	-2.822814	-0.790742	0.458864
H	-0.499206	0.158722	1.982586
H	-0.593433	-1.61715	1.690647
H	-1.046251	-1.157536	-1.837422
H	-0.892379	-2.372359	-0.525499
H	1.833285	-2.038293	0.032401
