19
../xyz/dsC7O2H10nsd_2913.xyz
O         -2.28281       -1.06052       -0.34970
C         -0.91083       -0.77154       -0.46331
C         -0.12599       -0.57663        0.82789
C          1.38590       -0.61784        0.80534
C          2.12258       -0.84703       -0.49448
C          1.87935        0.56308       -0.01806
C          0.66434        1.33854       -0.52585
C         -0.58229        0.62060       -0.00424
O         -1.63631        1.45595        0.34207
H         -2.38474       -1.89383        0.12121
H         -0.44096       -1.21136       -1.34067
H         -0.64047       -0.83420        1.74824
H          1.88047       -0.90516        1.72597
H          3.13896       -1.21948       -0.41954
H          1.59375       -1.22124       -1.36388
H          2.74075        1.13888        0.30089
H          0.65546        2.34480       -0.09509
H          0.65207        1.45405       -1.61552
H         -2.44073        0.92909        0.23572
