19

C	3.617131	0.167	-0.08899
C	2.448978	-0.753946	0.216107
O	1.251149	-0.105957	-0.175647
C	0.095828	-0.869585	0.0607
C	-1.106639	-0.024235	-0.389363
C	-1.13179	1.293396	0.402974
O	-1.179757	2.381725	-0.095449
C	-2.359139	-0.732655	-0.157946
C	-3.390383	-1.302632	0.079891
H	4.559218	-0.305758	0.203645
H	3.658154	0.393149	-1.158005
H	3.515571	1.108987	0.456918
H	2.552613	-1.708708	-0.32558
H	2.4119	-0.994948	1.291487
H	0.112979	-1.818589	-0.496943
H	-0.006346	-1.119185	1.130412
H	-0.992988	0.236382	-1.446748
H	-1.11979	1.145176	1.506243
H	-4.306357	-1.806714	0.267104
