19

C	0.644926	1.957591	0.085629
C	0.446371	0.526723	-0.344064
O	1.741005	-0.146776	-0.527936
C	1.525254	-0.940607	0.680397
C	0.029564	-0.689748	0.546034
C	-0.554006	-1.339272	-0.771331
C	-0.864502	0.12024	-1.06906
O	-1.808292	0.444815	0.006899
C	-1.230808	-0.184125	1.205811
H	1.216954	2.025771	1.017345
H	1.218428	2.483006	-0.6861
H	-0.313064	2.464062	0.218724
H	1.878885	-1.969482	0.564513
H	2.006794	-0.473937	1.549175
H	0.221333	-1.7767	-1.395834
H	-1.414483	-2.001469	-0.661565
H	-1.269018	0.528695	-1.995778
H	-1.067508	0.577127	1.975157
H	-1.92082	-0.946198	1.582169
