19
../xyz/dsC7O2H10nsd_3938.xyz
C          2.65661        0.51613       -0.09291
C          1.20733        0.36485       -0.49764
O          0.83905       -1.01502       -0.84653
C         -0.30914       -0.92641        0.01329
C          0.05845       -0.78443        1.46200
C          0.07573        0.41957        0.54470
O         -1.00911        1.28521        0.52050
C         -1.94982        0.76017       -0.44615
C         -1.72659       -0.78758       -0.50169
H          2.89344       -0.10153        0.77741
H          3.31497        0.21743       -0.91486
H          2.86694        1.56221        0.15339
H          0.96805        1.02656       -1.34045
H         -0.76662       -0.79047        2.16523
H          0.98442       -1.22222        1.82120
H         -2.95298        1.05208       -0.12320
H         -1.75957        1.21081       -1.42988
H         -2.44556       -1.31717        0.12916
H         -1.81807       -1.17303       -1.51926
