19

O	3.627264	-0.227996	-0.026379
C	2.440892	-0.076617	-0.038485
C	1.244164	-1.041348	-0.077948
C	0.346183	0.169245	0.34722
C	1.520926	1.146514	0.092307
O	-0.769582	0.45487	-0.459571
C	-1.848134	-0.40804	-0.2513
C	-3.20221	0.146318	-0.545876
C	-2.796015	-0.13325	0.888686
H	1.024484	-1.35979	-1.103144
H	1.299388	-1.918674	0.570412
H	0.056218	0.113276	1.403818
H	1.394867	1.657636	-0.868424
H	1.771666	1.881068	0.860258
H	-1.646791	-1.447989	-0.508601
H	-3.238916	1.184917	-0.853598
H	-3.933425	-0.497521	-1.020918
H	-2.577696	0.726926	1.511713
H	-3.246086	-0.971771	1.408457
