19

O	-1.724402	1.72836	0.130073
C	-1.499505	0.381966	0.456626
C	-2.170513	-0.750925	-0.359809
C	-0.870573	-1.581034	-0.173857
C	-0.117336	-0.267815	0.164786
C	0.764505	0.363243	-0.958034
C	1.982316	0.126372	-0.049853
O	3.163763	0.130144	-0.234408
C	1.086077	-0.227713	1.145625
H	-1.70014	1.812654	-0.829111
H	-1.736661	0.293156	1.522442
H	-3.11288	-1.162474	0.007117
H	-2.303286	-0.449672	-1.405228
H	-0.9306	-2.247432	0.691519
H	-0.511994	-2.155056	-1.031332
H	0.78849	-0.11248	-1.942379
H	0.576802	1.437157	-1.081619
H	1.341179	-1.145101	1.684118
H	1.024373	0.596649	1.866257
