19
../xyz/dsC7O2H10nsd_3131.xyz
C          2.33072       -0.73160       -1.05905
C          1.51165       -0.18175        0.10085
C          0.43855       -1.13991        0.64861
O         -0.32027       -0.46101        1.63138
C         -0.65307       -0.19939        0.25583
C         -2.01489       -0.53474       -0.19239
O         -2.53995       -0.04383       -1.16284
C          0.35510        0.81217       -0.30752
C          0.34475        2.21217        0.28775
H          3.01594       -1.51814       -0.72479
H          1.68595       -1.15715       -1.83621
H          2.92920        0.06026       -1.52045
H          2.16169        0.20092        0.89406
H          0.43751       -2.22538        0.67518
H         -2.51793       -1.29914        0.43919
H          0.26268        0.84498       -1.39712
H          0.37037        2.16615        1.38020
H          1.21431        2.78545       -0.05035
H         -0.55477        2.75898       -0.01260
