19

C	-2.996866	-0.818303	-0.390476
O	-1.651112	-0.801647	0.022783
C	-0.962652	0.42059	-0.230072
C	-1.38849	1.527312	0.746782
C	0.503505	0.121559	-0.128471
C	1.47643	0.446211	-1.02006
O	2.696164	0.036957	-0.579756
C	2.493276	-0.571123	0.619929
C	1.178195	-0.549305	0.950735
H	-3.097696	-0.556073	-1.455868
H	-3.362659	-1.838071	-0.245673
H	-3.633758	-0.136609	0.192092
H	-1.184063	0.753401	-1.258168
H	-0.825257	2.443048	0.545301
H	-2.453627	1.757988	0.652549
H	-1.188829	1.218616	1.777095
H	1.4654	0.949075	-1.973331
H	3.374943	-0.964956	1.097998
H	0.724739	-0.970559	1.833584
