19
../xyz/dsC7O2H10nsd_2451.xyz
C         -2.28187        0.42765        0.04495
C         -0.77368        0.31706        0.10625
C          0.01663        1.59931        0.35481
O          1.28995        1.37972       -0.27487
C          1.37513       -0.02216       -0.50977
C          1.29923       -0.78523        0.84225
C         -0.22662       -0.98513        0.80822
O         -0.36728       -1.69720       -0.46189
C         -0.03900       -0.41675       -1.04696
H         -2.59501        1.16132       -0.70576
H         -2.72090       -0.53991       -0.21315
H         -2.69534        0.74273        1.00989
H         -0.45761        2.46938       -0.11417
H          0.14508        1.82057        1.42444
H          2.24039       -0.21384       -1.14164
H          1.80366       -1.75353        0.83312
H          1.68277       -0.17689        1.66470
H         -0.73591       -1.46382        1.64530
H         -0.26734       -0.31457       -2.10712
