19

C	-2.1908	0.664892	-0.591118
C	-1.006839	-0.044469	0.001047
C	-1.117208	-1.249304	0.862955
C	-0.356997	-1.39534	-0.454888
C	0.988765	-0.782422	-0.285545
O	2.111083	-1.100589	-0.573856
C	0.391511	0.575307	0.213584
C	0.757362	1.713437	-0.733992
O	0.627898	0.928674	1.565913
H	-1.935895	1.187244	-1.518428
H	-2.995881	-0.042493	-0.813207
H	-2.588635	1.406016	0.11156
H	-0.586365	-1.301633	1.806513
H	-2.084069	-1.74338	0.858873
H	-0.667532	-2.103727	-1.213449
H	1.833009	1.909505	-0.675506
H	0.525705	1.467655	-1.77473
H	0.218251	2.623795	-0.455814
H	1.574803	1.079724	1.66548
