19

O	1.970854	-0.963167	0.141546
C	0.649885	-0.506404	0.112535
C	-0.441421	-1.561472	0.325908
O	-1.598715	-0.998818	-0.294775
C	-1.284152	0.384343	-0.522663
C	-1.024033	1.068592	0.851903
C	0.50124	0.854003	0.885232
C	0.91721	1.550942	-0.44164
C	0.154675	0.373992	-1.090937
H	2.070849	-1.645912	-0.531386
H	-0.184599	-2.507173	-0.171798
H	-0.623352	-1.777687	1.387895
H	-2.078803	0.805899	-1.136755
H	-1.2793	2.132192	0.866794
H	-1.585998	0.565315	1.642347
H	1.034698	1.018939	1.820918
H	0.560531	2.569963	-0.616059
H	1.989418	1.482972	-0.628186
H	0.279022	0.067394	-2.129957
