19

C	1.869478	0.266572	1.009366
C	0.815699	-0.220251	0.01556
C	1.440431	-0.791828	-1.253326
C	-0.286982	-1.081626	0.719962
O	-1.223194	-1.43316	-0.342321
C	-1.606958	-0.057953	-0.328076
C	-1.094639	0.229306	1.046559
C	-0.332654	0.79577	-0.136041
O	-0.247583	2.129276	-0.473903
H	2.44641	1.094885	0.58516
H	1.415172	0.623458	1.939081
H	2.571104	-0.537668	1.257464
H	1.979007	-0.010906	-1.803301
H	2.165407	-1.579104	-1.016906
H	0.674814	-1.21606	-1.90599
H	-0.043595	-1.907906	1.385728
H	-2.495051	0.261871	-0.858107
H	-1.527955	0.660218	1.937494
H	-0.24534	2.202351	-1.434851
