19
../xyz/dsC7O2H10nsd_3751.xyz
C          2.67367       -0.46820       -0.65368
C          1.60051        0.46984       -0.15105
C          1.14680        0.44246        1.27635
C          0.21649       -0.04864        0.17659
C         -0.25992       -1.47999        0.01690
C         -1.79022       -1.31035        0.09135
O         -2.06893        0.05140       -0.27825
C         -0.95414        0.82360       -0.15593
O         -0.97475        2.01398       -0.30458
H          2.57452       -0.64954       -1.72933
H          3.66783       -0.04364       -0.47923
H          2.63451       -1.43691       -0.14533
H          1.58666        1.45323       -0.61377
H          1.56198       -0.31681        1.93233
H          0.88995        1.38039        1.75571
H          0.03294       -1.88512       -0.95771
H          0.10793       -2.16191        0.78657
H         -2.33612       -1.95967       -0.59590
H         -2.16992       -1.47538        1.10609
