19

O	1.599332	1.777337	-0.081784
C	1.073218	0.504172	0.269399
C	2.136797	-0.511417	-0.128152
O	2.017019	-1.699051	0.023641
C	-0.240192	0.216194	-0.454355
C	-1.595003	0.83698	0.03445
C	-2.291275	-0.250612	-0.834605
C	-1.151743	-0.991293	-0.071409
C	-1.608019	-0.202267	1.192484
H	0.919997	2.436575	0.08868
H	0.953561	0.416154	1.359705
H	3.045602	-0.053654	-0.577603
H	-0.069199	0.325896	-1.53172
H	-1.856023	1.896361	0.090201
H	-3.314369	-0.51214	-0.553031
H	-2.181477	-0.160834	-1.918709
H	-0.886378	-2.045094	-0.134071
H	-2.593359	-0.461268	1.588574
H	-0.891853	-0.078821	2.006249
