19
../xyz/dsC7O2H10nsd_6029.xyz
C         -3.38815       -0.03798       -0.44022
C         -2.13141       -0.28512        0.37636
O         -1.09160        0.51602       -0.15622
C          0.10684        0.47572        0.58371
C          1.10819        1.43935       -0.02943
C          2.28050        0.86018       -0.28584
C          2.22069       -0.59713        0.05690
O          1.24679       -1.31505       -0.73278
C          0.86951       -0.86125        0.56786
H         -4.21531       -0.64538       -0.06072
H         -3.67746        1.01559       -0.39053
H         -3.21815       -0.29794       -1.48864
H         -2.29945       -0.02836        1.43666
H         -1.85380       -1.34998        0.33904
H         -0.09887        0.74421        1.63747
H          0.82876        2.46085       -0.25758
H          3.14953        1.33769       -0.72128
H          3.09690       -1.16841        0.34767
H          0.64932       -1.63878        1.29394
