19
../xyz/dsC7O2H10nsd_0412.xyz
C          2.19649       -0.73036        0.39512
O          2.10988        0.13508       -0.74152
C          0.94055       -0.05031        0.07203
C          0.41129        1.17972        0.80004
C         -0.74429        1.65692       -0.10510
C         -1.35099        0.36335       -0.64694
O         -2.12529       -0.34982        0.35111
C         -1.21441       -1.46743        0.32886
C         -0.23919       -0.72413       -0.60713
H          2.31696       -1.78960        0.16836
H          2.81303       -0.36429        1.21571
H          0.02335        0.89336        1.78367
H          1.19643        1.92423        0.94589
H         -1.48865        2.26350        0.41735
H         -0.35243        2.24462       -0.94367
H         -1.91925        0.49017       -1.57424
H         -0.84077       -1.71974        1.32929
H         -1.67484       -2.35958       -0.11447
H          0.05282       -1.23126       -1.52590
