19
../xyz/dsC7O2H10nsd_6011.xyz
C         -3.69677        0.01792        0.04350
C         -2.30648       -0.57198       -0.11453
O         -1.37226        0.49733       -0.17461
C         -0.06151        0.06987       -0.35310
C          0.72517       -0.18798        0.92085
C          2.19104       -0.61385        0.61220
O          2.37271       -0.70410       -0.81193
C          2.40786        0.58935       -0.18637
C          0.95343        1.07803        0.09149
H         -4.44514       -0.77898        0.08648
H         -3.76285        0.60640        0.96312
H         -3.93396        0.67290       -0.79960
H         -2.06370       -1.23725        0.72850
H         -2.24167       -1.17604       -1.03372
H          0.10900       -0.54409       -1.23404
H          0.24201       -0.27411        1.88438
H          2.85450       -1.20067        1.23621
H          3.28481        1.20240       -0.35533
H          0.67700        2.09533        0.33210
