19
../xyz/dsC7O2H10nsd_5840.xyz
C          1.83184        2.12287       -0.07246
O          2.18911        0.75508       -0.03760
C          1.17118       -0.07003        0.43665
C          1.53450       -1.55860        0.45096
O          0.36043       -1.90139       -0.31466
C          0.05189       -0.50310       -0.57078
C         -1.32183       -0.14087       -0.29113
C         -2.45671        0.17921       -0.04345
C         -3.83188        0.55238        0.25078
H          0.98546        2.30808       -0.74940
H          1.56138        2.49304        0.92799
H          2.70230        2.67424       -0.43428
H          0.75368        0.30571        1.38045
H          2.46496       -1.76483       -0.09253
H          1.55253       -2.06098        1.42336
H          0.33087       -0.22960       -1.59862
H         -4.34690        0.92053       -0.64320
H         -4.39658       -0.30658        0.62959
H         -3.87796        1.33966        1.01136
