19

C	1.668145	-1.290055	-0.958338
C	0.890031	-0.372827	-0.037648
O	1.748881	0.682262	0.498165
C	0.804645	1.700234	0.110078
C	-0.118373	0.679554	-0.586938
C	-1.487274	0.401457	0.062501
O	-2.475825	-0.076068	-0.848231
C	-1.152082	-0.615627	1.13371
C	0.104541	-1.056324	1.055577
H	2.148875	-0.715401	-1.75474
H	2.450097	-1.814565	-0.398612
H	1.011154	-2.040544	-1.410611
H	0.359815	2.206056	0.9779
H	1.267302	2.451402	-0.539619
H	-0.196772	0.784851	-1.669255
H	-1.924203	1.316274	0.479785
H	-2.216579	-0.966079	-1.111568
H	-1.897256	-0.951403	1.847137
H	0.555321	-1.798606	1.706462
