19
../xyz/dsC7O2H10nsd_3221.xyz
O          2.50379       -0.72617       -0.23085
C          1.13706       -0.43014       -0.44686
C          0.79609        1.07857       -0.33740
C         -0.61539        1.42087       -0.87667
C         -1.25493        0.86555        0.41730
C         -1.27876       -0.67366        0.46250
O         -1.76907       -1.29054       -0.70571
C          0.24026       -0.72190        0.78242
C          0.17038        0.82225        1.08765
H          2.77559       -0.29884        0.58943
H          0.86794       -0.93022       -1.38094
H          1.61679        1.76598       -0.55061
H         -0.75443        2.50385       -0.93715
H         -0.92334        0.96772       -1.82277
H         -2.12416        1.38588        0.81920
H         -1.83902       -0.99915        1.35206
H         -1.71008       -2.24531       -0.59695
H          0.59854       -1.49401        1.46668
H          0.44612        1.30848        2.01996
