19
../xyz/dsC7O2H10nsd_4322.xyz
C         -0.54773        2.15813        0.05381
C         -0.68751        0.73522       -0.47848
C         -2.06682        0.07035       -0.24040
C         -1.72605       -1.37850       -0.01693
C         -0.42152       -1.57517        0.16020
C          0.35873       -0.27163        0.13479
O          0.78310        0.07841        1.43268
C          1.57435       -0.35590       -0.76991
O          2.68962       -0.10409       -0.38080
H          0.43611        2.57785       -0.17999
H         -1.30470        2.81035       -0.39357
H         -0.66539        2.17676        1.13960
H         -0.52427        0.74365       -1.56440
H         -2.57536        0.48726        0.63994
H         -2.74309        0.22445       -1.08896
H         -2.48078       -2.15634        0.03304
H          0.05887       -2.51799        0.39493
H          1.74122        0.22262        1.36413
H          1.37501       -0.65813       -1.81828
