19

O	2.281531	-0.634707	-0.138344
C	0.974586	-0.125896	-0.057805
C	0.69368	1.140691	-0.901831
C	-0.357416	1.50144	0.194469
C	0.517309	0.681258	1.18776
C	-1.697964	0.793974	-0.078313
C	-1.482587	-0.670691	-0.432364
O	-1.016673	-1.549574	0.604936
C	-0.096561	-1.157803	-0.420679
H	2.355956	-1.375227	0.474295
H	1.550924	1.817328	-0.875708
H	0.355065	1.007488	-1.933608
H	-0.507257	2.559959	0.413457
H	1.352127	1.275655	1.566834
H	0.024544	0.141945	1.996668
H	-2.368479	0.87819	0.78554
H	-2.204291	1.278363	-0.922656
H	-2.212119	-1.132609	-1.095966
H	0.22837	-1.954691	-1.089015
