19

C	-2.905246	-0.32006	-0.379006
C	-1.470116	-0.798618	-0.375547
C	-0.758741	-1.104459	0.923673
C	-0.369383	0.095069	0.111153
C	-0.403949	1.575879	0.476903
O	0.873223	1.787632	-0.173632
C	0.97841	0.405314	-0.559391
C	2.174022	-0.283623	0.065293
O	2.47254	-1.427196	-0.167829
H	-3.134998	0.253933	-1.283397
H	-3.599462	-1.165736	-0.33449
H	-3.112716	0.321826	0.483967
H	-1.202659	-1.440825	-1.211965
H	-1.295493	-0.928168	1.851714
H	-0.069103	-1.941645	0.95162
H	-1.200045	2.16818	0.00863
H	-0.358761	1.813866	1.547094
H	1.002656	0.267773	-1.649026
H	2.734511	0.350283	0.789067
