19
../xyz/dsC7O2H10nsd_4379.xyz
C         -2.39933        0.79500       -0.56539
C         -1.52002       -0.39784       -0.22088
C         -1.00798       -0.41860        1.23521
O          0.33110       -0.87597        1.11651
C          0.79846       -0.34854       -0.11019
C          1.91793       -1.22897       -0.64245
O         -0.31221       -0.39500       -0.99769
C          1.24231        1.05551        0.06761
C          1.61239        2.18961        0.21443
H         -2.67459        0.77653       -1.62321
H         -3.32098        0.77386        0.02705
H         -1.87167        1.73100       -0.36081
H         -2.04795       -1.33187       -0.45206
H         -1.04049        0.58694        1.67842
H         -1.54956       -1.11335        1.88005
H          2.24100       -0.86534       -1.61984
H          2.76731       -1.20882        0.04372
H          1.54528       -2.25097       -0.73653
H          1.93796        3.19272        0.34260
