19

O	-2.200596	-1.53595	0.078174
C	-1.38371	-0.662316	-0.024389
C	-1.748276	0.816629	0.002986
C	-0.595635	1.773749	0.318974
C	0.63215	1.354133	-0.492057
C	0.983268	-0.070231	-0.144762
C	2.307775	-0.672684	-0.481435
C	1.950926	-0.384579	0.966265
O	-0.089529	-1.002038	-0.26554
H	-2.144789	1.033532	-0.998136
H	-2.588123	0.92295	0.692862
H	-0.888817	2.803616	0.094037
H	-0.354737	1.734697	1.387863
H	0.419568	1.434884	-1.566512
H	1.491525	1.997735	-0.282597
H	2.303261	-1.709867	-0.795388
H	3.044364	-0.046779	-0.973402
H	1.716649	-1.235004	1.595489
H	2.443113	0.439941	1.471222
