19
../xyz/dsC7O2H10nsd_5751.xyz
O          2.95904       -0.28331       -0.19202
C          1.91518        0.66102       -0.04256
C          0.68509        0.02227        0.58329
O          0.28366       -1.07868       -0.26245
C         -1.11929       -1.19417       -0.13945
C         -1.99862       -0.06963       -0.65109
C         -1.17996        1.21796       -0.70543
C         -0.59089        0.85966        0.70311
C         -1.68837       -0.23473        0.84437
H          2.57217       -1.03369       -0.65811
H          2.29358        1.45145        0.61501
H          1.65188        1.12097       -1.00659
H          0.96626       -0.37696        1.57152
H         -1.47959       -2.21293       -0.21604
H         -2.92558       -0.26659       -1.17809
H         -0.47936        1.33905       -1.53701
H         -1.82040        2.10105       -0.64699
H         -0.54526        1.65925        1.44127
H         -2.31412       -0.46004        1.69743
