19

C	3.792999	0.665089	-0.086895
C	2.527503	-0.054186	-0.141
C	1.495006	-0.671805	-0.213896
C	0.206524	-1.363318	-0.240084
C	-0.922243	-0.448312	0.210885
O	-0.699495	0.172619	1.454616
C	-2.360187	-0.801925	-0.053901
C	-1.720317	0.383755	-0.761553
O	-2.057415	1.680329	-0.388742
H	4.264754	0.572119	0.89735
H	4.497371	0.275745	-0.83
H	3.653992	1.732303	-0.29078
H	-0.010051	-1.73381	-1.249079
H	0.243702	-2.242916	0.416856
H	0.206405	0.513558	1.426921
H	-2.576403	-1.704281	-0.616969
H	-3.066704	-0.569708	0.735804
H	-1.516841	0.305462	-1.825636
H	-1.756658	1.772157	0.527212
