19

C	-0.584278	2.195387	-0.398846
C	-0.668593	0.747528	0.007238
C	-1.844173	-0.100557	-0.46342
C	-1.479776	-1.544913	-0.057267
C	0.064472	-1.598777	-0.083364
C	0.482659	-0.177696	0.234501
O	-0.242238	0.420638	1.330752
C	1.895976	0.259199	0.094054
O	2.73709	-0.377001	-0.492651
H	0.302419	2.679155	0.014968
H	-0.562424	2.291721	-1.488964
H	-1.464621	2.735779	-0.034017
H	-2.789769	0.239122	-0.02796
H	-1.93084	0.001772	-1.552105
H	-1.833114	-1.736925	0.957975
H	-1.935524	-2.290969	-0.711913
H	0.476727	-2.3213	0.626604
H	0.455609	-1.857171	-1.073024
H	2.124992	1.228692	0.58625
