19

O	0.232467	-1.862857	0.910053
C	0.133617	-1.197624	-0.082453
O	-1.065932	-1.008925	-0.734997
C	-1.953101	-0.14105	-0.002352
C	-1.464274	1.312492	0.014806
C	-0.055168	1.51339	0.622146
C	1.07227	1.098289	-0.31681
C	2.248221	0.266855	0.149896
C	1.198397	-0.361911	-0.715418
H	-2.917634	-0.217955	-0.509085
H	-2.065578	-0.52692	1.018782
H	-1.484639	1.712172	-1.006301
H	-2.195755	1.888859	0.595044
H	0.076421	2.567869	0.888653
H	0.016147	0.953266	1.562355
H	1.271202	1.809745	-1.113677
H	3.22247	0.460892	-0.284701
H	2.270502	-0.040987	1.189955
H	1.394809	-0.575337	-1.760349
