19
../xyz/dsC7O2H10nsd_2505.xyz
C          2.43607       -0.29742        0.16525
C          0.97351       -0.01680       -0.07002
O          0.33236       -1.05538       -0.79210
C         -0.69445       -1.64212       -0.02903
O         -1.75619       -0.75158        0.22887
C         -1.29584        0.56234        0.51038
C         -0.92679        1.43422       -0.73948
C          0.53594        1.40295       -0.30451
C          0.16137        0.66052        0.99572
H          2.94977       -0.44757       -0.78938
H          2.91675        0.53438        0.68844
H          2.56691       -1.20363        0.76572
H         -1.10241       -2.47247       -0.60948
H         -0.27891       -2.01409        0.92253
H         -2.03893        1.02455        1.16105
H         -1.16345        0.99006       -1.70876
H         -1.36473        2.43293       -0.67233
H          1.26137        2.19664       -0.43652
H          0.50536        0.79272        2.01473
