19

O	-2.164912	1.288776	0.158094
C	-2.502975	0.253084	-0.348245
O	-1.900049	-0.934386	-0.220078
C	-0.713545	-0.974648	0.615864
C	0.527967	-0.718269	-0.216504
C	1.92909	-0.575235	0.460907
C	2.403934	0.075603	-0.871496
C	1.025272	0.726614	-0.555399
C	1.519642	0.858683	0.913957
H	-3.382282	0.129647	-0.99995
H	-0.841897	-0.267237	1.435013
H	-0.701531	-1.992698	1.014344
H	0.518884	-1.397329	-1.07711
H	2.452482	-1.333677	1.046231
H	3.276752	0.729879	-0.804616
H	2.454958	-0.576002	-1.748463
H	0.496919	1.478325	-1.140411
H	2.341905	1.559763	1.079785
H	0.767186	0.959224	1.696546
