19

C	2.726722	-0.134085	-0.004742
O	1.535184	-0.765197	-0.455604
C	0.396063	-0.087207	-0.150202
C	-0.310894	0.27081	1.149364
C	-0.488957	1.724851	0.72693
C	-0.324	1.221135	-0.734222
C	-1.594816	0.347513	-0.975392
C	-0.997783	-0.600327	0.058929
O	-1.412392	-1.865661	0.415607
H	2.712138	0.003189	1.08411
H	3.556427	-0.78895	-0.279072
H	2.867163	0.844114	-0.484265
H	-0.170864	-0.157829	2.133396
H	-1.433396	2.226032	0.967496
H	0.349348	2.349266	1.049498
H	0.051816	1.869238	-1.522575
H	-2.566484	0.812507	-0.773994
H	-1.595337	-0.098816	-1.975157
H	-1.191156	-2.46803	-0.303447
