19
../xyz/dsC7O2H10nsd_4366.xyz
C          2.92981       -0.40390        0.19053
C          1.43355       -0.08296        0.30966
C          0.61981       -1.22050       -0.31932
O         -0.78611       -1.29533       -0.03334
C         -1.69517       -0.29254        0.04604
O         -2.85376       -0.56629       -0.11509
C         -1.26044        1.10706        0.47867
C         -0.13392        1.75353       -0.29050
C          1.08879        1.23579       -0.34460
H          3.22440       -0.52206       -0.85860
H          3.53075        0.40597        0.61418
H          3.18518       -1.32712        0.71879
H          1.17393       -0.03854        1.37803
H          0.74018       -1.19083       -1.40979
H          0.99878       -2.18428        0.03474
H         -2.16595        1.71195        0.43662
H         -0.98075        1.02492        1.54002
H         -0.35745        2.68993       -0.79240
H          1.87530        1.74409       -0.89700
