19
../xyz/dsC7O2H10nsd_2504.xyz
C         -2.43413        0.41869        0.19768
C         -0.97848        0.11327       -0.05372
O         -0.30359        1.15918       -0.70349
C          0.83181        1.63353        0.01226
C          1.89481        0.53882        0.18951
C          1.20714       -0.80232        0.44229
O          0.74594       -1.40188       -0.80835
C         -0.60406       -1.31264       -0.37600
C         -0.23356       -0.71584        0.96986
H         -2.92320        0.70721       -0.73768
H         -2.95607       -0.45293        0.60536
H         -2.54380        1.24501        0.90802
H          1.21554        2.48199       -0.55929
H          0.51837        2.00614        0.99958
H          2.51075        0.43475       -0.70941
H          2.56017        0.79820        1.02127
H          1.84492       -1.51449        0.97340
H         -1.29298       -2.09429       -0.67654
H         -0.57373       -0.91102        1.97872
