19
../xyz/dsC7O2H10nsd_0539.xyz
C         -2.25023       -0.18504        0.06978
O         -1.38151       -1.04908       -0.71188
C         -0.22257       -0.50545       -0.07933
C          0.94283       -1.39899        0.27037
C          2.07033       -0.36540        0.43078
O          1.80654        0.67465       -0.51724
C          0.41113        0.76267       -0.73023
C         -0.39317        1.66402        0.26423
C         -1.06377        0.40260        0.86497
H         -2.80198        0.52372       -0.56066
H         -2.96276       -0.77552        0.65629
H          0.78783       -2.00408        1.16713
H          1.14003       -2.06884       -0.57442
H          2.07827        0.03875        1.45540
H          3.06568       -0.76347        0.21813
H          0.22193        0.92948       -1.79373
H          0.26770        2.18157        0.96382
H         -1.06611        2.39588       -0.19123
H         -1.09808        0.29146        1.94881
