19
../xyz/dsC7O2H10nsd_2201.xyz
C          2.20164       -0.45201        0.06003
C          0.71259       -0.48312        0.06468
O          0.02526       -1.72834        0.24436
C         -1.18556       -0.93878        0.40762
C         -1.47050       -0.40060       -1.02075
C         -0.19765        0.41202       -0.79514
O          0.36656        1.39552       -1.57929
C         -0.34342        0.35396        0.73655
C         -0.35003        1.37661        1.82439
H          2.61082       -0.78204        1.01986
H          2.59140       -1.10978       -0.72429
H          2.55200        0.56253       -0.14688
H         -1.94789       -1.41618        1.01974
H         -1.50362       -1.14179       -1.82545
H         -2.36058        0.23672       -1.04205
H         -0.23929        2.14420       -1.61831
H         -0.15860        0.92831        2.80587
H          0.42806        2.12687        1.64512
H         -1.30932        1.90515        1.88156
