19
../xyz/dsC7O2H10nsd_6091.xyz
C         -3.88249        0.46496        0.71425
C         -2.87378       -0.15434       -0.25693
C         -1.44322       -0.15427        0.29480
C         -0.45552       -0.77968       -0.68317
O          0.87596       -0.85072       -0.12268
C          1.63755        0.24669       -0.26202
O          1.30141        1.26676       -0.81209
C          2.93950        0.04453        0.33846
C          4.03426       -0.06524        0.82089
H         -4.89335        0.45685        0.29547
H         -3.90889       -0.08499        1.66132
H         -3.62352        1.50447        0.94230
H         -3.17541       -1.18390       -0.49145
H         -2.89606        0.39418       -1.20741
H         -1.12677        0.87287        0.50723
H         -1.40542       -0.70723        1.24140
H         -0.71391       -1.81946       -0.89871
H         -0.41604       -0.21399       -1.61744
H          5.00266       -0.16298        1.24776
