19
../xyz/dsC7O2H10nsd_3915.xyz
C         -3.19054        0.04647       -0.00022
C         -1.71160        0.39303       -0.00002
C         -0.78842       -0.23507        1.08329
C          0.30939       -0.38684        0.00026
C          1.44415       -1.41844        0.00008
O          2.43825       -0.33931       -0.00037
C          1.45598        0.62135        0.00012
O          1.59057        1.80371        0.00012
C         -0.78812       -0.23495       -1.08315
H         -3.69343        0.45300        0.88412
H         -3.69327        0.45327       -0.88452
H         -3.34054       -1.03940       -0.00039
H         -1.57354        1.47868        0.00005
H         -0.54429        0.36129        1.96516
H         -1.15470       -1.21656        1.40354
H          1.54141       -2.03179        0.89915
H          1.54089       -2.03212       -0.89881
H         -0.54374        0.36153       -1.96487
H         -1.15431       -1.21640       -1.40361
