19

C	3.159629	-0.492885	-0.143065
C	1.853047	0.068181	0.390139
O	0.808999	-0.358974	-0.479187
C	-0.488412	0.046364	-0.113329
C	-1.539888	-0.695584	-0.977633
O	-2.099058	-1.356713	0.170573
C	-1.139645	-0.758327	1.057793
C	-0.637636	1.496672	-0.037414
C	-0.771542	2.689876	0.025217
H	3.128893	-1.585724	-0.17097
H	3.346398	-0.128882	-1.157185
H	3.992283	-0.184367	0.496007
H	1.665142	-0.293949	1.413177
H	1.882905	1.165502	0.429589
H	-2.269442	-0.062222	-1.491508
H	-1.071651	-1.391888	-1.682042
H	-1.615352	-0.164807	1.845344
H	-0.460782	-1.498139	1.499321
H	-0.89124	3.744192	0.076925
