19
../xyz/dsC7O2H10nsd_1763.xyz
O          1.31332       -1.68997       -0.74861
C          0.64182       -0.68957       -0.01621
C         -0.56305       -1.19655        0.84917
C         -1.47660       -0.27024        0.03417
O         -2.62982        0.04199        0.11964
C         -0.33411        0.16625       -0.89747
C          0.08905        1.63664       -0.74895
C          0.81996        1.67334        0.61035
C          1.57414        0.32978        0.66546
H          1.86301       -2.19286       -0.13798
H         -0.77990       -2.25393        0.66548
H         -0.54082       -1.01528        1.92828
H         -0.45634       -0.17163       -1.92924
H          0.77816        1.90317       -1.55793
H         -0.76308        2.32003       -0.79855
H          1.48517        2.53447        0.71366
H          0.08952        1.73416        1.42632
H          2.48700        0.38951        0.06151
H          1.86201        0.03820        1.68112
