19
../xyz/dsC7O2H10nsd_4082.xyz
C          2.57756        0.23280        0.19209
C          1.19334        0.41231       -0.42454
O          0.71524       -0.83812       -0.95327
C         -0.15343       -1.41859       -0.02099
C         -1.52896       -0.79638        0.15679
O         -1.84641        0.32353       -0.62429
C         -1.12625        1.44330       -0.10353
C          0.11598        0.85898        0.58979
C         -0.42051       -0.48405        1.13058
H          3.25847       -0.21036       -0.53954
H          2.99104        1.19561        0.51154
H          2.53256       -0.42965        1.06281
H          1.25199        1.10411       -1.27246
H         -0.02336       -2.48877        0.10402
H         -2.37953       -1.42061        0.41093
H         -0.88900        2.10982       -0.93835
H         -1.75055        1.99214        0.61802
H          0.51550        1.51908        1.36192
H         -0.40409       -0.74484        2.18053
