19

C	2.932308	-0.164475	0.547802
C	1.538795	-0.107152	0.006909
C	0.744417	-1.138295	-0.293067
C	-0.599859	-0.713034	-0.821356
O	-1.707817	-1.110081	-0.006308
C	-1.830233	-0.101498	0.962264
O	-1.534569	1.121816	0.319503
C	-0.574606	0.843925	-0.698669
C	0.86924	1.217412	-0.29634
H	3.002514	0.369443	1.503778
H	3.266519	-1.193416	0.703581
H	3.639287	0.326611	-0.132909
H	1.005956	-2.184085	-0.174126
H	-0.810444	-1.086799	-1.827783
H	-2.862339	-0.077492	1.323932
H	-1.135963	-0.273155	1.803361
H	-0.902403	1.362211	-1.603112
H	1.388512	1.742289	-1.109562
H	0.867084	1.899208	0.562023
