19
../xyz/dsC7O2H10nsd_5993.xyz
C          3.61920       -0.16878       -0.00056
O          2.26142       -0.28675       -0.35227
C          1.42399        0.56571        0.40706
C          0.00228        0.31219        0.02836
C         -0.93114        1.23134       -0.24387
C         -2.26286        0.58508       -0.42738
O         -2.71860       -0.12686        0.74850
C         -2.04986       -0.86588       -0.27523
C         -0.56780       -1.09770       -0.01578
H          3.79073       -0.42089        1.05824
H          4.18075       -0.86684       -0.62596
H          4.00027        0.85003       -0.17483
H          1.56857        0.36310        1.48490
H          1.68514        1.62393        0.24180
H         -0.76928        2.30188       -0.28635
H         -3.05002        1.02738       -1.03002
H         -2.65299       -1.61503       -0.78094
H         -0.39709       -1.64054        0.92193
H         -0.10156       -1.68590       -0.81413
