19
../xyz/dsC7O2H10nsd_0282.xyz
C          2.11394       -0.49376        0.65800
C          1.58204        0.39472       -0.44724
C          0.69422        1.60088       -0.17350
O         -0.50704        1.31520        0.52782
C         -1.42744        0.64551       -0.27482
C         -2.31402       -0.35492        0.40942
C         -1.20581       -0.83381       -0.49024
O         -0.11975       -1.39060        0.18194
C          1.13573       -1.04769       -0.33367
H          3.14957       -0.81386        0.63328
H          1.70160       -0.32836        1.64780
H          2.27530        0.57777       -1.26580
H          1.23005        2.33071        0.44340
H          0.45550        2.09277       -1.13027
H         -1.83499        1.24078       -1.09361
H         -2.14162       -0.49284        1.47041
H         -3.34245       -0.45203        0.08169
H         -1.44629       -1.28097       -1.45468
H          1.49558       -1.73636       -1.09811
