19

C	-2.461856	0.090186	0.891722
C	-1.795041	-0.453901	-0.377644
C	-0.28646	-0.350138	-0.359433
C	0.597184	-1.378972	-1.090926
C	0.683338	-1.235769	0.390044
O	1.767149	-0.494904	0.903326
C	1.718249	0.826211	0.38564
C	0.350168	1.002113	-0.291193
O	-0.129736	2.052375	-0.63899
H	-3.549309	-0.013255	0.831975
H	-2.121044	-0.449282	1.781809
H	-2.233218	1.150743	1.028069
H	-2.078345	-1.502094	-0.528377
H	-2.163355	0.097901	-1.250733
H	0.061332	-2.233102	-1.491352
H	1.426101	-1.03598	-1.701033
H	0.369402	-2.02795	1.05977
H	1.82896	1.546789	1.202741
H	2.526676	1.008089	-0.336817
