19
../xyz/dsC7O2H10nsd_0293.xyz
C          0.46104        1.62379       -0.57519
C         -0.81736        1.20334        0.21626
C         -1.82001        0.27325       -0.49451
O         -1.57585       -1.05648       -0.02952
C         -0.27429       -1.13176        0.52859
C          0.83928       -1.38370       -0.52973
O          1.88753       -0.45732       -0.28076
C          1.33217        0.69244        0.32638
C          0.05772        0.26196        1.09268
H          0.46477        1.35580       -1.63573
H          0.71586        2.68218       -0.48579
H         -1.31083        2.02419        0.73700
H         -2.86288        0.51164       -0.26040
H         -1.70010        0.32719       -1.58672
H         -0.29660       -1.92156        1.28248
H          1.26585       -2.38880       -0.47535
H          0.40824       -1.25022       -1.53334
H          2.13154        1.19257        0.87555
H          0.01938        0.34142        2.17775
