19
../xyz/dsC7O2H10nsd_4028.xyz
C          1.48971       -1.60714       -0.43342
C          0.39277       -0.60493       -0.20252
O         -0.09175       -0.62542        1.20239
C         -1.43350       -0.65870        0.70706
C         -1.67589        0.46367       -0.28078
C         -0.65439        1.59194       -0.29867
C          0.72523        0.87649       -0.45690
O          1.72794        1.33673        0.42318
C         -1.03958       -0.84348       -0.72386
H          2.38316       -1.31072        0.12362
H          1.18294       -2.60475       -0.10968
H          1.74760       -1.64572       -1.49745
H         -2.19062       -1.12438        1.32705
H         -2.70918        0.65033       -0.55275
H         -0.84585        2.28161       -1.12546
H         -0.65801        2.18059        0.62402
H          1.12313        1.01062       -1.46893
H          1.42287        1.08711        1.30661
H         -1.37171       -1.52224       -1.49690
