19
../xyz/dsC7O2H10nsd_0137.xyz
C         -2.61135       -0.06941       -0.07355
C         -1.48605        0.80015        0.40233
C         -1.39752       -0.72063        0.53302
C         -0.30774       -0.76446       -0.55929
O          0.90881       -1.41943       -0.28512
C          1.83856       -0.68267        0.46936
O          2.10223        0.56756       -0.09202
C          0.96670        1.40902        0.04853
C         -0.30531        0.80977       -0.58462
H         -3.50099       -0.06087        0.54791
H         -2.81441       -0.18143       -1.13740
H         -1.63197        1.54603        1.17618
H         -1.44569       -1.35621        1.40863
H         -0.66413       -1.21962       -1.48897
H          1.48743       -0.56093        1.51185
H          2.76667       -1.25758        0.45233
H          0.79633        1.59980        1.12087
H          1.22731        2.35965       -0.42214
H         -0.49262        1.25558       -1.56679
