19

C	-1.881823	-0.203643	-0.757226
O	-1.101076	-1.317742	-0.278596
C	-0.662399	-0.577204	0.879277
C	-1.337083	0.721718	0.348455
C	-0.213985	1.709515	-0.040699
C	1.120349	0.970358	0.14682
C	1.672309	0.015419	-0.941161
O	1.605825	-1.115043	-0.044855
C	0.869	-0.347208	0.920851
H	-1.631403	0.065796	-1.791167
H	-2.958323	-0.409257	-0.695201
H	-1.055255	-1.014413	1.804343
H	-2.099952	1.183951	0.97605
H	-0.341071	2.084488	-1.062632
H	-0.244358	2.58472	0.616232
H	1.898326	1.611065	0.564293
H	1.023007	-0.119231	-1.815258
H	2.697564	0.203652	-1.278544
H	1.275275	-0.462222	1.931589
