19

C	2.655857	-1.027124	-0.333419
C	1.39313	-0.288586	0.014126
C	0.070204	-1.032413	0.130514
C	-1.003229	0.083668	0.265591
C	-0.390934	1.313581	-0.466112
C	1.103387	1.109473	-0.332464
O	1.512566	0.757426	0.998069
C	-2.324888	-0.328777	-0.336465
O	-3.374535	-0.383042	0.248351
H	2.895827	-1.766806	0.438121
H	2.547395	-1.55892	-1.284669
H	3.497342	-0.334595	-0.411693
H	-0.087346	-1.622507	-0.782884
H	0.044636	-1.725788	0.976305
H	-1.166567	0.319703	1.317205
H	-0.658709	1.317409	-1.531755
H	-0.739617	2.256237	-0.035405
H	1.799538	1.735436	-0.886264
H	-2.257911	-0.594173	-1.420945
