19

C	-0.931572	2.12796	-0.3874
C	-0.759129	0.639988	-0.647611
C	-1.777888	-0.284637	0.046889
C	-1.445308	-1.717288	-0.232549
C	-0.662252	-0.977028	0.823279
C	0.399123	-0.033464	0.223029
O	0.943398	0.819619	1.187165
C	1.519282	-0.66581	-0.568139
O	2.674988	-0.345371	-0.40661
H	-0.085597	2.699263	-0.780622
H	-1.841946	2.486943	-0.879774
H	-1.004745	2.33675	0.68176
H	-0.675237	0.457176	-1.726857
H	-2.754893	0.030068	0.393445
H	-2.140244	-2.451413	0.162702
H	-1.001809	-2.006958	-1.18172
H	-0.627618	-1.297275	1.857259
H	1.896351	0.843446	1.000727
H	1.235117	-1.430312	-1.316342
