19

C	2.759468	0.211831	-0.420883
C	1.713268	-0.325361	0.564914
C	0.29471	0.076227	0.235541
C	-0.132227	1.539339	0.209921
O	-1.533266	1.442444	-0.128333
C	-1.725629	0.059112	-0.242519
C	-0.920284	-0.71936	0.83497
O	-0.705314	-1.832268	-0.093765
C	-0.507142	-0.635232	-0.915733
H	3.758292	-0.150276	-0.160403
H	2.544185	-0.115679	-1.443486
H	2.795768	1.306157	-0.422332
H	1.746545	-1.420256	0.582775
H	1.956573	0.014597	1.580294
H	-0.018138	2.035677	1.181961
H	0.387288	2.134957	-0.549469
H	-2.749399	-0.204683	-0.497023
H	-1.153037	-0.952274	1.874511
H	-0.252436	-0.76897	-1.96732
