19
../xyz/dsC7O2H10nsd_3889.xyz
C         -1.57841        1.65774        0.46462
C         -1.06430        0.64471       -0.56071
O          0.31946        0.80306       -0.86217
C          1.06369       -0.14999       -0.12142
C          1.94818        0.34730        0.99451
C          2.53724       -0.13235       -0.32416
C          0.20197       -1.38808        0.00095
C         -1.20809       -0.79741       -0.05028
O         -2.23961       -1.33102        0.25884
H         -1.03103        1.57249        1.40797
H         -1.45525        2.67426        0.08270
H         -2.63857        1.47466        0.66106
H         -1.62320        0.75108       -1.49832
H          1.95713        1.41577        1.17686
H          2.07769       -0.27249        1.87597
H          2.92498        0.62368       -0.99780
H          3.06848       -1.07786       -0.34523
H          0.32461       -2.05260       -0.86452
H          0.35467       -1.97679        0.90695
