19
../xyz/dsC7O2H10nsd_0298.xyz
C         -1.64590       -0.63389       -0.65498
C         -1.12420       -0.45977        0.80078
C         -0.81477        1.02577        0.99690
O         -0.27404        1.58218       -0.20354
C          0.54562        0.66917       -0.90058
O          1.75084        0.40388       -0.20607
C          1.54785       -0.68983        0.70043
C          0.16899       -1.24079        0.36139
C         -0.15637       -0.70594       -1.05442
H         -2.14658       -1.59360       -0.80337
H         -2.25253        0.17243       -1.07388
H         -1.70777       -0.85858        1.63348
H         -1.73180        1.58591        1.20766
H         -0.12264        1.18471        1.83646
H          0.81095        1.16634       -1.83491
H          2.33341       -1.43566        0.52725
H          1.63695       -0.33758        1.73648
H          0.07213       -2.31852        0.49910
H          0.16607       -1.24236       -1.94844
