19

C	2.022133	-0.758612	-1.001199
C	1.307582	-0.234794	0.259233
C	1.143949	1.265608	0.212495
C	-0.009647	1.890373	-0.012703
C	-1.317714	1.172974	-0.233745
C	-1.121265	-0.322675	-0.423871
O	-1.766257	-0.983337	-1.20424
C	-0.043366	-0.935691	0.474661
O	-0.413482	-0.73467	1.839536
H	2.2423	-1.827436	-0.913715
H	1.406897	-0.608673	-1.894423
H	2.966922	-0.229495	-1.156976
H	1.919703	-0.493339	1.133549
H	2.050504	1.849514	0.353471
H	-0.044898	2.976427	-0.038321
H	-1.973642	1.324182	0.636556
H	-1.85959	1.560815	-1.102204
H	0.036832	-2.004238	0.236666
H	-1.197143	-1.266793	2.013806
