19
../xyz/dsC7O2H10nsd_3863.xyz
C         -2.92557       -0.54921       -0.64492
C         -1.94874        0.28469        0.17388
C         -1.01076       -0.54729        1.12629
C          0.19272       -0.05344        0.30364
O          0.17735        1.37637        0.36053
C         -0.68503        0.73042       -0.58559
C          1.48780       -0.73390        0.05139
C          2.77396       -0.06410        0.29834
O          2.26952       -0.22755       -1.02836
H         -2.41188       -1.36451       -1.16735
H         -3.69359       -0.99443       -0.00421
H         -3.43132        0.06276       -1.39960
H         -2.46222        1.11720        0.66399
H         -0.99529       -0.26899        2.18260
H         -1.18474       -1.62315        1.03204
H         -0.56456        1.00070       -1.62889
H          1.44546       -1.82229        0.11292
H          2.76308        0.95713        0.67135
H          3.65387       -0.65796        0.54159
