19

C	0.552435	1.879059	-0.855232
C	0.225046	0.731846	0.091689
O	-0.619099	1.163943	1.137218
C	1.382251	-0.046706	0.745085
C	2.186754	-0.838245	-0.24691
C	0.855625	-1.370298	0.201034
C	-0.264272	-0.629794	-0.550555
C	-1.677931	-1.04622	-0.265466
O	-2.602885	-0.283617	-0.09918
H	-0.35833	2.234522	-1.349928
H	0.978039	2.712463	-0.28865
H	1.265443	1.581847	-1.630266
H	-1.526184	1.153634	0.799626
H	1.743529	0.18632	1.7389
H	2.324368	-0.492589	-1.268895
H	3.05541	-1.340062	0.167228
H	0.742941	-2.322752	0.705516
H	-0.159922	-0.687537	-1.64586
H	-1.84887	-2.146303	-0.249849
