19

O	-1.088977	2.040553	0.205069
C	-0.975387	0.683387	0.556248
C	-1.801273	-0.315374	-0.283187
O	-1.464896	-1.61852	0.20681
C	-0.581942	-1.002828	-0.740134
C	0.32551	-0.049558	0.051308
C	1.396778	0.74012	-0.749161
C	2.483664	-0.177986	-0.123123
C	1.448018	-0.624629	0.945313
H	-0.905867	2.127974	-0.73733
H	-1.16184	0.624003	1.631571
H	-2.771644	-0.180921	-0.749298
H	-0.373141	-1.551424	-1.653139
H	1.309555	0.748414	-1.840326
H	1.469445	1.772498	-0.395358
H	2.763729	-0.996152	-0.791925
H	3.396684	0.305649	0.230538
H	1.384529	-1.687188	1.190385
H	1.54733	-0.057905	1.876267
