19
../xyz/dsC7O2H10nsd_4550.xyz
O         -2.31029       -0.91759       -0.04791
C         -1.01895       -0.59321        0.39024
C          0.00070       -1.56681       -0.23934
C          1.45946       -1.38772        0.22192
C          2.14463       -0.18325       -0.38100
C          1.74744        1.07734       -0.21501
C          0.55591        1.49319        0.62769
C         -0.73209        0.88245        0.09975
O         -1.54838        1.52985       -0.52208
H         -2.63567       -0.11518       -0.48840
H         -0.95768       -0.70762        1.48818
H         -0.34821       -2.57244        0.01788
H         -0.06383       -1.47740       -1.32905
H          1.48453       -1.32588        1.32071
H          2.02105       -2.28917       -0.03865
H          3.01118       -0.37381       -1.00886
H          2.28165        1.88010       -0.71361
H          0.69935        1.17376        1.66862
H          0.43444        2.57752        0.61758
