19

C	2.312933	-1.156698	-0.029907
O	1.303609	-0.5712	0.786458
C	0.136222	-0.260089	0.084263
C	-0.762637	-1.316043	-0.465585
C	-2.047047	-0.97832	-0.327769
C	-2.226935	0.346199	0.387738
C	-0.793964	0.826067	0.611231
C	0.092855	1.099966	-0.587475
O	1.194401	1.938916	-0.417485
H	2.557133	-0.516168	-0.886924
H	3.197539	-1.27533	0.599874
H	2.010458	-2.145278	-0.399048
H	-0.395889	-2.212695	-0.950971
H	-2.886467	-1.554969	-0.699883
H	-2.805471	1.05781	-0.215784
H	-2.777312	0.223652	1.330292
H	-0.531447	1.35899	1.518348
H	-0.343436	1.202222	-1.577133
H	1.722251	1.553537	0.294467
