19
../xyz/dsC7O2H10nsd_1284.xyz
C          2.47668       -0.37706       -1.14078
C          1.83030        0.32486        0.05158
O          2.27097       -0.37987        1.21688
C          0.32730        0.34858       -0.01278
C         -0.43888        1.44512       -0.03346
C         -1.91045        1.14177       -0.06407
C         -1.95158       -0.39653       -0.01569
O         -2.94400       -1.07411        0.01148
C         -0.50426       -0.91272       -0.00983
H          2.21085        0.12682       -2.07408
H          3.56413       -0.36515       -1.02958
H          2.15336       -1.42018       -1.19825
H          2.18844        1.36635        0.08206
H          1.89159        0.06132        1.98426
H         -0.04998        2.45829       -0.02961
H         -2.47075        1.56134        0.78145
H         -2.41833        1.49925       -0.96977
H         -0.32087       -1.54887        0.86385
H         -0.33900       -1.55146       -0.88696
