19
../xyz/dsC7O2H10nsd_5773.xyz
O          2.97864       -0.16234       -0.49684
C          2.01197       -0.34132        0.52856
C          0.65557       -0.47476       -0.14910
C          0.21108        0.79184       -0.97114
C         -1.16715        1.07097       -0.32705
C         -0.83808        0.90770        1.19388
C         -0.54872       -0.58704        0.81826
C         -1.70612       -0.36480       -0.18050
O         -2.66533       -0.97743       -0.54188
H          3.83808       -0.03616       -0.08458
H          2.21929       -1.24825        1.11902
H          2.01330        0.51118        1.22565
H          0.70416       -1.35501       -0.79843
H          0.90278        1.62663       -0.82924
H          0.14377        0.59209       -2.04261
H         -1.77042        1.88760       -0.71819
H         -0.00140        1.49854        1.57137
H         -1.70935        1.02061        1.84123
H         -0.55800       -1.39461        1.54808
