19

C	2.454825	0.772803	0.427871
C	0.998154	0.54935	0.125563
C	0.169383	1.542314	-0.196954
C	-1.288189	1.403057	-0.536408
C	-1.842742	0.023527	-0.282784
O	-1.759472	-0.460251	1.065832
C	-0.950851	-1.085712	0.069055
C	0.547987	-0.891681	0.202878
O	1.223219	-1.607169	-0.839777
H	2.697232	0.45879	1.451882
H	3.081013	0.175421	-0.243007
H	2.731139	1.824831	0.320812
H	0.562316	2.556656	-0.230348
H	-1.878049	2.13876	0.02817
H	-1.446313	1.653627	-1.595768
H	-2.789351	-0.206347	-0.772357
H	-1.247446	-2.106002	-0.183915
H	0.854536	-1.293618	1.1842
H	1.193545	-2.544703	-0.623437
