19
../xyz/dsC7O2H10nsd_1668.xyz
O         -0.11177        2.00279       -0.30901
C          0.04758        0.60328       -0.13613
C          0.63125        0.20560        1.26640
C          1.92451       -0.25438        0.57494
C          1.61131       -1.35402       -0.39516
C          1.33095        0.07092       -0.79950
C         -1.27098        0.01039       -0.57466
C         -2.38727       -0.17645        0.35660
O         -1.60454       -1.28991       -0.08793
H          0.75964        2.40686       -0.23177
H          0.74405        1.09905        1.88486
H          0.09791       -0.56483        1.82992
H          2.92906       -0.07614        0.93825
H          2.46811       -1.80113       -0.88947
H          0.79213       -2.03849       -0.20100
H          1.78928        0.52640       -1.67092
H         -1.50165        0.17061       -1.62862
H         -2.26217        0.09251        1.40387
H         -3.40996       -0.15001       -0.01453
