19

C	0.511539	1.962703	0.771458
C	0.668463	0.64425	0.064237
C	1.975473	-0.113566	-0.275781
C	0.874608	-1.02986	-0.840806
C	0.001719	0.19071	-1.290092
C	-1.246868	-0.37602	-0.601141
O	-2.206867	0.579571	-0.209522
C	-0.101263	-0.714134	0.35357
O	-0.275683	-1.377997	1.55182
H	0.902313	1.906457	1.794629
H	1.063066	2.755378	0.252904
H	-0.541688	2.247361	0.819487
H	2.638702	0.363656	-1.004949
H	2.565614	-0.498211	0.565187
H	0.961676	-1.976871	-1.373635
H	0.0794	0.708215	-2.2438
H	-1.714497	-1.238225	-1.100546
H	-2.769116	0.17357	0.458364
H	0.572899	-1.438426	2.00531
