19

C	-1.903624	1.392955	0.085719
C	-1.167286	0.07231	0.062009
O	-2.031507	-0.910014	0.512908
C	-0.222887	-0.390241	-1.176767
O	0.37616	-1.355163	-0.253448
C	0.352073	-0.033689	0.49894
C	1.712307	0.130158	1.196135
C	2.293851	0.322893	-0.261632
C	0.841119	0.647844	-0.784433
H	-2.262291	1.589799	1.10034
H	-1.284315	2.230327	-0.235373
H	-2.778562	1.331003	-0.56785
H	-1.507094	-1.72561	0.479853
H	-0.556952	-0.769561	-2.14765
H	1.770358	1.050225	1.783406
H	2.063134	-0.715567	1.791061
H	2.987919	1.157146	-0.375558
H	2.737337	-0.583483	-0.667536
H	0.639921	1.703755	-0.95619
