19
../xyz/dsC7O2H10nsd_0925.xyz
O          3.76368       -0.35311       -0.10850
C          2.59194       -0.54830        0.09240
C          1.59862        0.52826        0.48081
C          0.38971        0.55332       -0.45122
C         -0.84627        1.36412        0.00173
C         -1.55107        0.01250       -0.02785
C         -2.55610       -0.58514        0.89684
C         -2.88634       -0.36397       -0.57576
O         -0.36020       -0.68861       -0.40230
H          2.15056       -1.56404        0.00071
H          1.24455        0.31208        1.49815
H          2.10813        1.49700        0.48132
H          0.70766        0.76601       -1.47968
H         -0.75383        1.81979        0.99053
H         -1.20979        2.10701       -0.71027
H         -2.38327       -1.60662        1.21869
H         -3.02512        0.05292        1.63923
H         -2.92815       -1.24118       -1.21238
H         -3.58153        0.42606       -0.84159
