19
../xyz/dsC7O2H10nsd_1623.xyz
O          1.37916        1.55316       -0.02285
C          1.05169        0.19147        0.01867
C          1.94389       -0.78404       -0.71306
C          1.99345       -0.67357        0.79670
C         -0.41345       -0.03874        0.08225
C         -1.27399       -1.32396       -0.02140
C         -2.19355       -0.08343       -0.13132
C         -1.45855        0.57104        1.05714
O         -1.21245        0.53241       -1.05386
H          0.87902        1.93205       -0.75665
H          1.50106       -1.66947       -1.15503
H          2.76578       -0.34968       -1.26995
H          1.58444       -1.48249        1.39189
H          2.84433       -0.16569        1.23566
H         -1.15252       -1.89111       -0.94492
H         -1.36353       -1.95585        0.86588
H         -3.24429       -0.02953       -0.41369
H         -1.48501        1.66002        1.08167
H         -1.55984        0.11460        2.04493
