19
../xyz/dsC7O2H10nsd_3896.xyz
O         -2.59023        0.96123       -0.30804
C         -2.00834       -0.22877        0.18448
C         -1.00899       -0.93558       -0.78003
C          0.15329       -0.33682        0.04556
C         -0.83641       -0.03428        1.19160
O          1.30378       -1.17832        0.30868
C          2.15557       -0.25336       -0.37143
C          2.18487        1.06310        0.33663
C          1.03756        0.73135       -0.59934
H         -1.88607        1.56358       -0.57002
H         -2.84576       -0.83568        0.53265
H         -1.02971       -2.02396       -0.67767
H         -1.07654       -0.66912       -1.83831
H         -0.80485       -0.82657        1.94463
H         -0.76620        0.93773        1.68800
H          2.93015       -0.65058       -1.01626
H          2.03109        1.09393        1.41178
H          2.88808        1.79329       -0.05257
H          0.78619        1.32030       -1.47217
