19

C	1.907711	1.310853	0.395485
C	1.402017	0.125172	-0.427454
O	2.23889	-1.022069	-0.292492
C	-0.036098	-0.203507	-0.111263
C	-0.966379	-1.259063	-0.808605
C	-1.896558	-0.646275	0.292693
C	-0.652136	-0.733749	1.241266
C	-1.289032	0.69428	-0.139191
O	-1.596045	1.824433	-0.366622
H	2.943249	1.538494	0.130342
H	1.289452	2.195838	0.216321
H	1.86944	1.085124	1.46848
H	1.460822	0.381276	-1.492535
H	2.299202	-1.227589	0.647102
H	-1.23234	-1.084202	-1.852926
H	-0.673787	-2.295716	-0.62961
H	-2.925922	-0.909483	0.522893
H	-0.630458	-0.073084	2.110186
H	-0.359576	-1.755842	1.49508
