19

O	-2.73365	-0.424968	-0.36159
C	-1.78752	-0.065354	0.637983
C	-0.393824	0.085354	0.078104
C	-0.077169	1.297737	-0.823614
O	1.091266	1.63135	-0.023656
C	0.807141	0.567022	0.915885
C	1.537787	-0.77463	0.694209
C	1.745674	-1.024521	-0.769912
C	0.372825	-1.238686	-0.199518
H	-2.473957	-1.279965	-0.719958
H	-2.136091	0.891421	1.04168
H	-1.782733	-0.791024	1.467632
H	0.177787	1.101453	-1.870638
H	-0.830543	2.093651	-0.77705
H	0.725776	0.917238	1.948384
H	2.079416	-1.319403	1.457947
H	1.96766	-0.194484	-1.431236
H	2.284122	-1.937468	-1.003168
H	-0.101845	-2.214012	-0.230453
