19
../xyz/dsC7O2H10nsd_4738.xyz
C         -1.33159        1.98514        0.33911
C         -1.67147        0.49172        0.32655
C         -0.58510       -0.40559       -0.31206
C         -1.06826       -1.85666       -0.41016
O         -0.27472       -0.00252       -1.63679
C          0.66468       -0.38318        0.59731
O          0.62845       -0.76386        1.74673
C          1.89318        0.13677        0.01322
C          2.91618        0.59002       -0.43337
H         -0.41949        2.19343        0.90932
H         -1.19779        2.37342       -0.67615
H         -2.14108        2.55850        0.79942
H         -1.83934        0.13754        1.34859
H         -2.59792        0.32961       -0.23513
H         -0.30633       -2.47973       -0.88624
H         -1.28009       -2.25233        0.58484
H         -1.97475       -1.89716       -1.01981
H          0.19480        0.83812       -1.60730
H          3.82639        0.98031       -0.82058
