19

C	-1.817474	1.634394	-0.041241
C	-0.637909	0.725855	-0.015577
O	0.56945	1.09332	-0.689273
C	1.213296	-0.015925	0.022726
C	2.677566	0.178072	0.26236
C	0.607431	-1.27236	-0.668391
C	-0.69567	-0.82143	-0.008125
O	-1.862465	-1.533453	0.176128
C	0.037097	-0.048234	1.07534
H	-1.597858	2.589666	0.445339
H	-2.122369	1.841657	-1.073422
H	-2.657107	1.163358	0.478105
H	2.859076	1.098124	0.825021
H	3.091142	-0.665415	0.823081
H	3.207604	0.249563	-0.693642
H	0.679658	-1.307666	-1.760811
H	0.975653	-2.199506	-0.220673
H	-2.379886	-1.485404	-0.635925
H	-0.017812	-0.04555	2.155532
