19

C	-2.386713	-0.779579	-0.183458
C	-0.927052	-0.620159	-0.57499
C	0.123868	-1.202587	0.421812
O	-0.026164	-0.008599	1.227563
C	-0.197628	0.673827	-0.049534
C	-0.803112	2.044861	0.027415
C	1.209736	0.475526	-0.698362
O	2.228838	0.125284	0.239974
C	1.449087	-0.921191	-0.34151
H	-3.026499	-0.113758	-0.772866
H	-2.727028	-1.804751	-0.364158
H	-2.532829	-0.550781	0.875065
H	-0.763904	-0.858937	-1.632825
H	-0.005899	-2.136632	0.967736
H	-0.182084	2.693147	0.653585
H	-0.863952	2.491194	-0.97081
H	-1.808886	2.013147	0.454821
H	1.516264	0.969693	-1.614117
H	1.964319	-1.659984	-0.944973
