19

C	2.945995	1.214194	-0.346267
C	1.76904	0.725435	0.464886
C	1.8188	-0.601062	1.180477
C	0.933122	-0.457781	-0.033577
O	1.398466	-1.164447	-1.156443
C	-0.496356	-0.402198	0.111973
C	-1.700499	-0.353956	0.179445
C	-3.153978	-0.2479	0.278414
O	-3.699004	0.866229	-0.417625
H	3.710756	1.653485	0.303223
H	3.400877	0.391968	-0.903424
H	2.640623	1.982253	-1.06562
H	1.192886	1.501261	0.960928
H	2.698331	-1.217353	1.02591
H	1.346565	-0.702341	2.150035
H	1.000766	-0.763322	-1.937764
H	-3.625993	-1.132447	-0.163663
H	-3.442615	-0.235641	1.341987
H	-3.214642	1.647493	-0.131179
