19
../xyz/dsC7O2H10nsd_5636.xyz
C         -2.24382        0.13778        1.01652
O         -2.05434       -0.35105       -0.29791
C         -0.72074       -0.26000       -0.80229
C         -0.22676        1.16222       -0.87622
C          0.83226        1.63222       -0.22095
C          1.70482        0.81854        0.69582
C          1.39624       -0.66084        0.67498
O          1.52751       -1.31731       -0.59026
C          0.21805       -1.17859       -0.03720
H         -1.96579        1.19587        1.11017
H         -3.30861        0.02879        1.23585
H         -1.67306       -0.43559        1.76148
H         -0.81079       -0.65822       -1.82163
H         -0.81090        1.82214       -1.51246
H          1.11297        2.67623       -0.34033
H          2.76246        0.97015        0.43903
H          1.59982        1.18704        1.72673
H          1.79194       -1.23671        1.51225
H         -0.24370       -2.11077        0.29035
