19
../xyz/dsC7O2H10nsd_1870.xyz
C         -2.55857       -0.52489       -0.48101
C         -1.16112       -0.44218        0.03816
C         -0.04113       -1.50207       -0.05597
C          0.96565       -0.33307        0.02254
C          2.34580       -0.24134        0.48764
O          2.01721       -0.18708       -0.91461
C         -0.18137        0.66917        0.10836
C         -0.19324        2.09789       -0.31836
O         -0.92912        0.26208        1.27338
H         -3.05579        0.44588       -0.40541
H         -2.56514       -0.84449       -1.52793
H         -3.14397       -1.24972        0.09608
H         -0.02624       -2.24212        0.74764
H          0.01435       -1.99799       -1.02910
H          2.71850        0.68837        0.91504
H          2.86973       -1.14192        0.80404
H         -1.21637        2.47732       -0.38391
H          0.35252        2.72154        0.39870
H          0.29146        2.20210       -1.29347
