19
../xyz/dsC7O2H10nsd_1181.xyz
O          1.11086        0.06923        1.71078
C          0.97049       -0.49006        0.41539
C          2.22393       -0.44437       -0.34889
C          3.24879       -0.40986       -0.97549
C         -0.17702        0.22039       -0.34044
O          0.16118        1.60676       -0.30264
C         -1.51568       -0.04148        0.30621
C         -2.78226        0.25980       -0.46383
C         -2.38624       -1.16810       -0.18398
H          1.15901        1.02409        1.56460
H          0.68224       -1.53687        0.56401
H          4.15770       -0.37832       -1.52381
H         -0.19275       -0.13984       -1.38072
H         -0.65116        2.10571       -0.43441
H         -1.52688        0.15885        1.37293
H         -3.62464        0.67877        0.07488
H         -2.68802        0.61274       -1.48659
H         -2.95536       -1.72857        0.54863
H         -2.02853       -1.76243       -1.01849
