19
../xyz/dsC7O2H10nsd_2562.xyz
C         -2.98188        0.11730        0.22480
C         -1.51564       -0.00161       -0.04601
C         -0.88815       -1.02133       -0.64464
C          0.59002       -0.80436       -0.73243
O          1.36471       -1.51457        0.28014
C          1.55588       -0.31019        1.04780
C          0.82634        0.55714       -0.01020
O          1.57994        1.56209       -0.63789
C         -0.55944        1.10521        0.35342
H         -3.17447        0.22789        1.29949
H         -3.40064        1.00927       -0.25822
H         -3.53212       -0.75672       -0.13286
H         -1.37759       -1.91623       -1.01408
H          1.02540       -0.95260       -1.72800
H          1.08131       -0.36332        2.03607
H          2.61920       -0.06478        1.17690
H          2.43578        1.19370       -0.88274
H         -0.64680        1.36130        1.41714
H         -0.75009        2.02838       -0.20814
