19
../xyz/dsC7O2H10nsd_5620.xyz
C         -2.49078       -1.14474        0.01773
O         -1.81179       -0.02601       -0.50688
C         -0.91773        0.57503        0.41875
C         -0.33849        1.82875       -0.20894
C          0.99546        1.82781       -0.20747
C          1.54654        0.56695        0.36491
C          1.18003       -0.69814       -0.40093
O          1.91076       -1.86412       -0.17070
C          0.32725       -0.25949        0.74968
H         -3.06111       -0.88446        0.92429
H         -3.18858       -1.48904       -0.74960
H         -1.80404       -1.96680        0.26614
H         -1.47799        0.80753        1.34231
H         -0.98062        2.59242       -0.63033
H          1.62244        2.61568       -0.61039
H          2.44913        0.55482        0.96498
H          0.77983       -0.57322       -1.40659
H          2.70291       -1.83030       -0.71729
H          0.35259       -0.88268        1.63462
