19

O	-2.263536	-1.334848	-0.510825
C	-1.359288	-0.685845	0.371439
C	-1.884624	0.706343	0.802146
C	-1.174787	1.644399	-0.145492
C	-0.158753	1.045704	-0.768204
C	0.001641	-0.396237	-0.331411
C	1.22708	-0.602209	0.592913
C	2.52642	-0.427551	-0.158727
O	3.387499	0.368112	0.113947
H	-2.413874	-0.741886	-1.25643
H	-1.246588	-1.372363	1.214514
H	-2.977022	0.735804	0.728796
H	-1.633299	0.937394	1.846244
H	-1.456793	2.684411	-0.266737
H	0.515357	1.524645	-1.469936
H	0.098169	-1.084877	-1.180779
H	1.212979	0.089203	1.440122
H	1.20575	-1.632588	0.976155
H	2.637481	-1.113469	-1.032903
