19

C	2.394117	-0.93225	-0.269813
O	1.079979	-1.447467	-0.288057
C	0.122962	-0.607566	0.326354
C	-1.16577	-1.423852	0.587139
C	-2.277059	-0.543261	0.082931
C	-1.827367	0.537763	-0.549965
C	-0.312956	0.597359	-0.560227
C	0.208671	1.94988	-0.109635
O	1.001295	2.128996	0.779439
H	2.739045	-0.737294	0.756066
H	3.03882	-1.686218	-0.728158
H	2.486455	0.003876	-0.839961
H	0.530811	-0.211326	1.26566
H	-1.110223	-2.363667	0.023574
H	-1.280678	-1.695819	1.641988
H	-3.324255	-0.79817	0.203353
H	-2.441381	1.296818	-1.022419
H	0.061503	0.459593	-1.588922
H	-0.205879	2.811543	-0.682929
