19
../xyz/dsC7O2H10nsd_1192.xyz
C         -2.84764       -0.62191        0.81917
C         -2.02764       -0.22527       -0.39044
C         -1.27209        1.12347       -0.37404
C         -0.02140        0.26186       -0.62235
O         -0.77371       -0.95698       -0.47939
C          1.11206        0.38101        0.40765
O          1.65402        1.69916        0.37930
C          2.13600       -0.64238        0.19974
C          2.99680       -1.45071       -0.02523
H         -2.28477       -0.45846        1.74339
H         -3.77028       -0.03259        0.86335
H         -3.12061       -1.68057        0.76599
H         -2.61214       -0.37595       -1.30871
H         -1.53224        1.84080       -1.15256
H         -1.27373        1.62781        0.59508
H          0.40427        0.35653       -1.63201
H          0.67307        0.26197        1.40529
H          2.26697        1.74449       -0.36282
H          3.75039       -2.17776       -0.20328
