19

C	1.730523	-1.150784	-1.065863
C	0.881286	-0.314503	-0.098783
C	0.403001	-1.113885	1.150613
O	-0.92956	-1.24306	0.618678
C	-0.640146	-0.322532	-0.464951
C	-1.45109	0.950385	-0.287836
O	-2.829558	0.63346	-0.261093
C	1.495259	0.976364	0.162423
C	2.026086	2.034021	0.377143
H	1.260162	-2.12405	-1.235833
H	1.833361	-0.641264	-2.028305
H	2.732611	-1.313229	-0.658615
H	0.88353	-2.087473	1.298069
H	0.42444	-0.546891	2.087797
H	-0.870346	-0.78256	-1.433541
H	-1.133911	1.471848	0.627621
H	-1.286488	1.629142	-1.131201
H	-2.926952	-0.05482	0.408973
H	2.487028	2.971695	0.567885
