19
../xyz/dsC7O2H10nsd_1228.xyz
C         -2.94250        0.45165        1.12950
C         -2.33073        0.30156       -0.27096
O         -2.87738       -0.81597       -0.96755
C         -0.86564        0.24449       -0.21238
C          0.33367        0.14807       -0.13647
C          1.77618        0.09325       -0.07666
C          2.50398        1.32563       -0.57294
C          2.44508       -1.22475       -0.10079
O          2.32556       -0.50094        1.11856
H         -2.66218       -0.39643        1.76246
H         -2.58921        1.36666        1.61336
H         -4.03186        0.48615        1.04661
H         -2.62356        1.16762       -0.87693
H         -2.54703       -1.61249       -0.53697
H          3.58362        1.18794       -0.47586
H          2.25996        1.51897       -1.62175
H          2.20932        2.20174        0.01187
H          1.84404       -2.12937       -0.17320
H          3.45125       -1.29493       -0.51355
