19

C	-1.911242	-1.084247	-0.995012
C	-1.373441	-0.416914	0.261835
C	-0.363087	-1.203043	1.158681
C	0.649368	-0.014526	1.066871
C	1.52659	-0.134482	-0.168245
O	2.598824	-0.558533	-0.459518
O	0.602194	0.446068	-1.009826
C	-0.32614	0.721566	0.105262
C	-0.723593	2.170192	0.148221
H	-2.536461	-0.396166	-1.574056
H	-1.096024	-1.420181	-1.641258
H	-2.524358	-1.953794	-0.736125
H	-2.20358	-0.046329	0.873068
H	-0.719391	-1.386821	2.173344
H	0.006007	-2.144774	0.745787
H	1.0823	0.393572	1.977629
H	-1.321773	2.429743	-0.731957
H	-1.323623	2.375602	1.039858
H	0.158032	2.817594	0.162778
