19

O	-0.05354	2.682772	-0.400544
C	-0.716353	1.576561	0.190133
C	0.085978	0.314516	-0.129965
C	-0.642649	-0.942417	0.379917
C	-1.909562	-1.231826	-0.39044
O	-2.999053	-1.391546	0.097107
C	1.517067	0.424984	0.449086
C	2.386852	-0.672139	0.047407
C	3.081728	-1.589844	-0.300586
H	-0.529748	3.484565	-0.166747
H	-0.796175	1.692009	1.284097
H	-1.740297	1.471836	-0.200907
H	0.176453	0.250757	-1.222207
H	0.026513	-1.803108	0.242384
H	-0.885417	-0.866594	1.445213
H	-1.762813	-1.295666	-1.495251
H	1.941839	1.37962	0.123224
H	1.45934	0.466952	1.545619
H	3.712682	-2.389193	-0.60123
