19
../xyz/dsC7O2H10nsd_0211.xyz
C          2.16286       -0.36475        0.27471
C          1.36268        0.51172       -0.66100
C          0.44441        1.60495       -0.10485
C         -0.83703        0.99456        0.47436
C         -1.74836        0.33862       -0.59708
O         -1.43868       -1.05343       -0.52828
C         -0.31694       -1.15479        0.33535
O         -0.49126       -0.13143        1.29417
C          0.96948       -0.93684       -0.44092
H          3.15061       -0.68180       -0.04181
H          2.05885       -0.18072        1.33842
H          1.83638        0.74307       -1.60915
H          0.95746        2.18122        0.67353
H          0.17849        2.31347       -0.89763
H         -1.37780        1.70751        1.10025
H         -2.81131        0.47059       -0.36957
H         -1.55033        0.73316       -1.60089
H         -0.35765       -2.12287        0.84241
H          1.13221       -1.64555       -1.24609
