19

O	2.33258	-1.088116	-0.31913
C	1.317867	-0.458767	-0.127119
C	1.376119	0.951126	0.470946
O	0.111678	1.554577	0.654514
C	-0.660999	1.5151	-0.539414
C	-1.142619	0.098359	-0.832258
C	-2.102378	-0.497662	0.237287
C	-0.938064	-1.347515	0.806341
C	-0.063253	-0.975533	-0.443168
H	1.861892	0.904125	1.450361
H	2.019731	1.560171	-0.186396
H	-1.507559	2.191292	-0.382009
H	-0.067557	1.906852	-1.38284
H	-1.498295	0.037031	-1.864639
H	-2.55345	0.22187	0.925245
H	-2.899019	-1.102686	-0.202166
H	-0.535216	-0.94434	1.737464
H	-1.118227	-2.415957	0.937228
H	0.02359	-1.800695	-1.151007
