19
../xyz/dsC7O2H10nsd_6005.xyz
C          3.38180        0.19894       -0.37495
C          2.14549        0.01402        0.48782
O          1.07671       -0.40271       -0.34345
C         -0.10345       -0.67203        0.34486
C         -1.30983       -1.03379       -0.49802
C         -1.98570        0.31077       -0.80465
O         -1.17150        1.35741       -0.27919
C         -0.98320        0.50925        0.88159
C         -2.24408       -0.34843        0.50537
H          4.22828        0.52802        0.23530
H          3.65072       -0.74039       -0.86651
H          3.19689        0.94963       -1.14822
H          2.32878       -0.73921        1.27328
H          1.88886        0.95682        0.99616
H          0.05203       -1.40861        1.14909
H         -1.48343       -1.93152       -1.07608
H         -2.61020        0.50511       -1.66586
H         -0.77592        1.05575        1.79863
H         -3.12392       -0.68545        1.03322
