19

C	2.702756	-0.794915	-0.166106
C	1.239271	-0.645019	-0.532021
C	0.194021	-0.905129	0.491113
C	-1.174512	-0.941973	-0.209471
O	-2.298452	-1.110453	0.612445
C	-0.919044	0.564419	-0.488912
O	-1.738778	1.443475	-0.597626
C	0.484539	0.574115	-0.005193
C	1.117081	1.777118	0.635799
H	2.887127	-0.568493	0.887284
H	3.028096	-1.824537	-0.344614
H	3.333349	-0.134628	-0.770003
H	1.01862	-0.961615	-1.551737
H	0.388915	-1.291692	1.482991
H	-1.209669	-1.628805	-1.065979
H	-2.842347	-0.319173	0.499086
H	1.514122	2.459326	-0.124141
H	0.374062	2.329707	1.218207
H	1.940899	1.504043	1.299103
