19
../xyz/dsC7O2H10nsd_0640.xyz
C         -0.00015        1.54889       -0.35721
C         -1.33278        1.19005        0.35651
O         -2.14688        0.25243       -0.34965
C         -2.00786       -1.10312        0.04481
C         -0.60186       -1.50340        0.03347
C          0.60229       -1.50344        0.03331
C          2.00817       -1.10281        0.04462
O          2.14682        0.25288       -0.34953
C          1.33237        1.19013        0.35676
H         -0.00005        1.07388       -1.34096
H         -0.00018        2.62868       -0.54162
H         -1.14503        0.83846        1.38111
H         -1.95572        2.08679        0.43185
H         -2.43394       -1.26262        1.04938
H         -2.60972       -1.68438       -0.66116
H          2.43440       -1.26249        1.04910
H          2.61007       -1.68377       -0.66156
H          1.14442        0.83814        1.38117
H          1.95509        2.08699        0.43258
