19
../xyz/dsC7O2H10nsd_2820.xyz
C         -2.66892        0.07721       -0.40965
C         -1.35095       -0.67487       -0.27612
C         -0.17412       -0.01693       -0.99470
C          1.10930       -0.39749       -0.20585
O          2.31404       -0.35590       -0.87450
C          0.68783       -1.29767        0.95138
C         -0.57144       -0.38271        1.04243
C          0.24642        0.74245        0.25142
O          0.60386        2.03771        0.51496
H         -3.42218       -0.32252        0.27835
H         -2.54128        1.14254       -0.18256
H         -3.07029        0.00206       -1.42610
H         -1.50283       -1.74244       -0.48133
H         -0.07366        0.28209       -2.03113
H          2.96453        0.05689       -0.29534
H          0.51822       -2.36392        0.76378
H          1.34678       -1.17247        1.81672
H         -1.09728       -0.25362        1.98693
H         -0.13388        2.61694        0.29357
