19
../xyz/dsC7O2H10nsd_0691.xyz
O         -1.61963        1.83475        0.09662
C         -1.58455        0.65331       -0.09386
C         -2.62484       -0.47606       -0.03637
C         -1.43393       -1.47963        0.05056
C         -0.42840       -0.34101       -0.32608
C          0.84036       -0.12895        0.47694
C          1.74003        1.04713        0.02780
O          2.81157        0.14958       -0.33393
C          2.06588       -0.99973        0.10902
H         -3.33429       -0.43604        0.79361
H         -3.18955       -0.55105       -0.97152
H         -1.27562       -1.84505        1.06828
H         -1.47061       -2.33196       -0.62832
H         -0.19168       -0.37176       -1.39847
H          0.60990       -0.12066        1.54577
H          1.37285        1.62236       -0.82998
H          2.03567        1.74415        0.82063
H          1.90657       -1.72578       -0.69941
H          2.55394       -1.50909        0.94984
