19

C	-2.980583	0.628338	-0.005529
C	-1.594784	0.628801	0.648398
C	-0.507789	0.202224	-0.316738
O	-0.681502	-1.158809	-0.847346
C	0.647743	-1.497152	-0.50609
C	0.897498	-1.448613	0.949594
C	0.901207	-0.132112	0.175671
C	2.061093	0.7527	0.075814
O	2.003233	1.908616	-0.278018
H	-3.018378	1.321117	-0.853071
H	-3.229707	-0.369798	-0.376635
H	-3.751701	0.930367	0.708776
H	-1.339252	1.634265	1.005931
H	-1.593999	-0.030577	1.523503
H	-0.447906	0.895927	-1.163021
H	1.246726	-2.034028	-1.233215
H	0.095386	-1.66081	1.649201
H	1.886189	-1.769152	1.266575
H	3.032479	0.279118	0.348153
