19

C	-0.148256	2.337995	0.332137
C	0.301288	1.045438	-0.371751
C	1.719909	0.678844	0.092965
O	2.126202	-0.597923	-0.360799
C	1.348792	-1.635069	0.19807
C	-0.117681	-1.345575	0.183588
C	-0.616433	-0.136386	-0.109478
C	-2.09159	0.013452	-0.210653
O	-2.894359	-0.848172	0.070825
H	-0.260563	2.179539	1.410113
H	0.595829	3.127991	0.18382
H	-1.099507	2.712771	-0.053135
H	0.335404	1.23658	-1.453814
H	2.45044	1.391737	-0.299892
H	1.76163	0.724904	1.195095
H	1.56031	-2.535764	-0.39108
H	1.670317	-1.85657	1.233975
H	-0.803583	-2.16077	0.399405
H	-2.441196	0.996136	-0.593964
