19
../xyz/dsC7O2H10nsd_1831.xyz
O         -1.94493       -1.07986        0.06277
C         -0.65336       -0.58776        0.02683
C          0.39915       -1.07599        1.06999
C          1.46513       -0.84506       -0.03774
C          0.33944       -1.07966       -1.07856
C          1.91888        0.62167       -0.07388
C          0.72563        1.59336        0.12243
C         -0.63933        0.93020       -0.00500
O         -1.67789        1.54858       -0.10064
H         -2.52115       -0.30025       -0.00861
H          0.49077       -0.53730        2.01776
H          0.24107       -2.13858        1.26810
H          2.31866       -1.52436       -0.06280
H          0.38031       -0.54024       -2.02976
H          0.16097       -2.14118       -1.26577
H          2.67197        0.79999        0.70066
H          2.40738        0.81890       -1.03448
H          0.74201        2.02406        1.13148
H          0.75742        2.44865       -0.55797
