19
../xyz/dsC7O2H10nsd_3417.xyz
C         -2.24429       -1.12094        0.05524
C         -0.72520       -0.98252        0.05767
C         -0.17576        0.06541        1.08769
C          1.36121       -0.08451        1.21171
C          1.93972       -0.59609       -0.12520
O          1.21385       -0.14248       -1.26940
C         -0.19323       -0.02628       -1.05867
C         -0.41639        1.10621       -0.02258
O         -0.72728        2.25968       -0.05720
H         -2.58255       -1.71818       -0.79757
H         -2.59267       -1.61032        0.97039
H         -2.73929       -0.14476       -0.00445
H         -0.24906       -1.96494        0.08774
H         -0.67111        0.19440        2.05232
H          1.79789        0.88085        1.48793
H          1.61321       -0.79414        2.00798
H          2.96840       -0.25473       -0.26870
H          1.96080       -1.69428       -0.12005
H         -0.67446        0.00080       -2.03800
