19
../xyz/dsC7O2H10nsd_4932.xyz
C         -1.24269        1.95602        0.26278
O         -0.45476        0.98609        0.93574
C         -0.21565       -0.21812        0.24282
C          0.63494       -1.16119        1.12741
O          1.74758       -1.11173        0.22284
C          1.05228       -0.24303       -0.70031
C          1.80225        1.05029       -0.93917
C         -1.41846       -0.80607       -0.33537
C         -2.39568       -1.30499       -0.82751
H         -2.25232        1.58213        0.05659
H         -1.30449        2.81502        0.93413
H         -0.78564        2.27589       -0.68243
H          0.86277       -0.71972        2.10386
H          0.23667       -2.17337        1.25151
H          0.85546       -0.76597       -1.64434
H          1.86385        1.64175       -0.02284
H          2.81779        0.81296       -1.27137
H          1.32115        1.64780       -1.72026
H         -3.25983       -1.74898       -1.25731
