19

C	2.532192	-0.337213	-0.327189
C	1.160114	-0.01667	0.265494
C	0.6331	1.377243	-0.131065
C	-0.386212	1.974231	0.786283
C	-0.845649	1.27538	-0.485141
C	-1.229467	-0.158058	-0.306489
O	-2.332681	-0.649629	-0.254501
C	0.052472	-0.984641	-0.202307
O	-0.10075	-2.13631	0.578287
H	2.842405	-1.350806	-0.056406
H	2.51326	-0.270696	-1.421179
H	3.293652	0.359391	0.038304
H	1.2216	-0.092703	1.35738
H	1.286874	2.034113	-0.693541
H	-0.568595	1.498095	1.744953
H	-0.513039	3.051131	0.79301
H	-1.340232	1.867738	-1.245188
H	0.279229	-1.24725	-1.256906
H	-1.047002	-2.343136	0.551764
