19

C	2.26583	-0.428828	-0.84255
C	1.344498	-0.411962	0.383297
O	1.625879	0.694782	1.22943
C	-0.110404	-0.41173	-0.024066
C	-0.882241	-1.63898	-0.480693
C	-1.430372	-0.886976	0.676669
C	-2.199939	0.343793	0.171287
C	-0.842163	0.837911	-0.385318
O	-0.435702	1.931368	-0.688636
H	2.06475	0.440803	-1.476874
H	3.310142	-0.39197	-0.521498
H	2.112629	-1.331282	-1.442894
H	1.542143	-1.300355	0.996727
H	1.419234	1.492382	0.724413
H	-1.405653	-1.64353	-1.433591
H	-0.373799	-2.57168	-0.252623
H	-1.497474	-1.295285	1.675993
H	-3.0087	0.151038	-0.539313
H	-2.555928	1.021316	0.951555
