19

C	-1.414064	1.672671	-0.4765
C	-0.947139	0.376389	0.169262
C	-1.805112	-0.226433	1.288198
C	-1.76172	-0.888643	-0.05808
O	-2.852522	-0.785356	-0.921704
C	0.478218	0.215364	0.28256
C	1.677032	0.112724	0.374365
C	3.125829	-0.064001	0.444401
O	3.735672	-0.300353	-0.818837
H	-1.126636	2.530937	0.137981
H	-0.958905	1.794325	-1.463718
H	-2.498007	1.669185	-0.601602
H	-1.302443	-0.69927	2.123555
H	-2.706978	0.323406	1.53703
H	-1.192646	-1.813023	-0.145966
H	-3.580577	-1.289361	-0.543316
H	3.600318	0.842813	0.836534
H	3.357773	-0.873341	1.156076
H	3.224635	-0.988415	-1.25748
