19
../xyz/dsC7O2H10nsd_0050.xyz
C         -1.43342        2.14877       -0.06459
C         -1.33776        0.65484       -0.01039
C         -0.24208       -0.10607        0.28022
C          1.17425        0.20528        0.61631
C          2.15796       -0.20424       -0.48405
O          3.46006        0.13664       -0.03549
O         -0.56755       -1.43677        0.22505
C         -1.88354       -1.51625       -0.10161
C         -2.40785       -0.27657       -0.25704
H         -1.71688        2.49706       -1.06466
H         -2.19079        2.52655        0.63189
H         -0.48284        2.62372        0.19180
H          1.27716        1.27917        0.79634
H          1.46814       -0.30313        1.54258
H          2.06392       -1.28373       -0.67326
H          1.90109        0.31965       -1.41815
H          4.09166       -0.14383       -0.70391
H         -2.28808       -2.51206       -0.17947
H         -3.42889       -0.03702       -0.51276
