19
../xyz/dsC7O2H10nsd_0005.xyz
C         -2.49498       -0.98246        0.10277
C         -1.49900        0.15494        0.33841
O         -1.83250        1.29375       -0.46558
C         -0.06051       -0.26371        0.14072
C          1.02736        0.56603        0.08028
C          1.20180        2.03917        0.19092
O          2.16226       -0.16824       -0.10352
C          1.79912       -1.47747       -0.15551
C          0.45675       -1.59897       -0.01405
H         -2.39183       -1.39081       -0.90901
H         -2.34402       -1.79901        0.81598
H         -3.51291       -0.60314        0.21989
H         -1.63441        0.51975        1.36464
H         -1.57657        1.08262       -1.37084
H          1.69610        2.31665        1.12999
H          1.82072        2.42415       -0.62697
H          0.22511        2.52215        0.14937
H          2.60095       -2.18190       -0.30232
H         -0.10443       -2.51988       -0.01914
