19

C	2.403466	-1.532793	0.000825
C	1.335776	-0.5025	0.330072
C	-0.069572	-0.920292	-0.117091
C	-1.01547	0.248468	-0.023512
C	-2.467171	0.004327	0.011142
O	-2.977173	-1.092834	-0.022881
C	-0.554386	1.50353	0.057343
C	0.910738	1.814627	0.026559
O	1.714106	0.711977	-0.322518
H	2.171873	-2.489918	0.477438
H	2.459218	-1.687569	-1.081083
H	3.382651	-1.19528	0.35019
H	1.316979	-0.327662	1.419873
H	-0.036952	-1.297107	-1.147594
H	-0.446144	-1.744764	0.49767
H	-3.086856	0.927687	0.075474
H	-1.241025	2.341334	0.163954
H	1.116486	2.598048	-0.713891
H	1.208025	2.229875	1.009136
