19
../xyz/dsC7O2H10nsd_0285.xyz
C          2.09662       -0.50536        0.23164
C          1.18790        0.37128       -0.60672
C          0.52212        1.68753       -0.27696
O         -0.90831        1.49695       -0.24064
C         -1.34811        0.29222        0.36829
C         -0.29124       -0.22874        1.33570
C          0.62524       -0.76085        0.23634
C         -0.33440       -1.63427       -0.53221
O         -1.50982       -0.78806       -0.56623
H          2.76049       -1.16502       -0.31769
H          2.52550       -0.12140        1.15279
H          1.22259        0.15285       -1.67021
H          0.87595        2.10189        0.67666
H          0.69228        2.44478       -1.04578
H         -2.34052        0.50778        0.76697
H          0.14075        0.54094        1.97477
H         -0.68149       -1.03419        1.96485
H         -0.01784       -1.85105       -1.55669
H         -0.58144       -2.57861       -0.02728
