19

C	-2.727776	-0.156173	-0.648716
O	-2.549209	-0.240348	0.76177
C	-1.695353	0.653417	0.024509
C	-0.248592	0.331541	-0.02199
C	0.669938	1.296865	0.064347
C	2.145957	1.022978	-0.001257
O	2.460277	-0.308619	-0.354376
C	1.636749	-1.253956	0.309112
C	0.179994	-1.113066	-0.133037
H	-2.440147	-1.042639	-1.211132
H	-3.647642	0.324515	-0.979953
H	-1.921549	1.707776	0.187331
H	0.375464	2.335673	0.197782
H	2.620601	1.659596	-0.7583
H	2.610118	1.288297	0.967785
H	2.037356	-2.238972	0.055124
H	1.709424	-1.127187	1.401713
H	0.073563	-1.467742	-1.166736
H	-0.471235	-1.737225	0.489415
