19

C	-2.731782	0.6292	-0.139901
C	-1.352748	0.320162	0.430766
C	-1.042798	-1.194537	0.645418
C	-0.034751	-1.154707	-0.540785
O	1.324768	-1.467952	-0.247305
C	1.968484	-0.337689	0.306532
C	1.123047	0.892176	-0.052554
O	1.44624	2.038399	0.117477
C	-0.191198	0.378764	-0.622985
H	-2.939988	0.024531	-1.030081
H	-3.512563	0.415124	0.597974
H	-2.815433	1.683477	-0.423517
H	-1.172614	0.947903	1.308477
H	-0.55793	-1.428695	1.596291
H	-1.894683	-1.867027	0.516096
H	-0.320857	-1.747987	-1.410647
H	2.055512	-0.401426	1.403494
H	2.980273	-0.250413	-0.102765
H	-0.419308	0.86072	-1.575649
