19

C	-3.246968	-0.511331	-0.338904
C	-2.243185	0.472449	0.268782
C	-0.849804	0.313131	-0.314726
O	-0.297279	-1.008889	-0.026122
C	0.745517	-0.450222	0.799148
C	0.303192	1.004693	0.437294
C	1.588593	1.211813	-0.408599
C	2.029314	-0.225077	-0.04095
O	2.992766	-0.886946	-0.283759
H	-4.231955	-0.406815	0.124776
H	-3.363418	-0.344355	-1.41536
H	-2.906637	-1.540157	-0.193113
H	-2.566719	1.508167	0.097848
H	-2.189313	0.332448	1.355695
H	-0.865935	0.493349	-1.398735
H	0.811967	-0.908429	1.789446
H	0.04983	1.765199	1.173136
H	1.457339	1.42306	-1.473864
H	2.280991	1.951469	0.006938
