19

C	-0.410362	2.185679	-0.026318
C	0.039073	0.889273	0.640485
C	1.4765	0.446676	0.258175
C	1.558215	-1.025974	0.718446
C	0.562551	-1.122253	-0.460667
O	1.296436	-0.035875	-1.113918
C	-0.654181	-0.37719	0.075943
C	-1.910285	-0.977634	0.520256
O	-1.820142	-0.269337	-0.725651
H	-1.486037	2.336682	0.097282
H	0.109753	3.046506	0.406398
H	-0.199018	2.149217	-1.097904
H	-0.075044	0.954557	1.728264
H	2.289589	1.163574	0.373321
H	2.518499	-1.48171	0.476696
H	1.223376	-1.292564	1.724674
H	0.406967	-2.006144	-1.077989
H	-2.068202	-2.052581	0.433164
H	-2.499306	-0.487304	1.294724
