19

C	-2.824407	-0.537459	-0.528609
C	-1.43607	-0.261149	-0.011334
C	-0.605547	-1.248827	0.335344
C	0.820919	-1.120701	0.834031
C	1.652902	-0.286375	-0.133208
O	2.571069	-0.721056	-0.78248
C	1.241531	1.18761	-0.241553
O	0.164509	1.540762	0.59319
C	-1.107567	1.212097	0.075588
H	-2.963716	-0.125119	-1.536481
H	-3.029652	-1.609475	-0.570643
H	-3.587226	-0.069622	0.107156
H	-0.960374	-2.269479	0.216898
H	0.846183	-0.639543	1.818785
H	1.288175	-2.103489	0.914034
H	2.102369	1.790988	0.067486
H	1.041009	1.421767	-1.298598
H	-1.831537	1.705484	0.737052
H	-1.240426	1.669664	-0.922925
