19
../xyz/dsC7O2H10nsd_0935.xyz
O          3.08914       -0.88711       -0.46332
C          2.56699       -0.16430        0.34664
C          1.56959        0.92203        0.01635
C          0.16150        0.52078        0.47790
C         -0.97363        1.52204        0.08048
C         -1.68547        0.39151       -0.69123
O         -2.59266       -0.36799        0.13499
C         -1.59819       -1.39420        0.36757
C         -0.52184       -0.59204       -0.37691
H          2.77283       -0.28539        1.43653
H          1.86619        1.84528        0.53236
H          1.58878        1.10096       -1.06343
H          0.18199        0.28209        1.54743
H         -1.55955        1.95051        0.89628
H         -0.61577        2.32822       -0.56760
H         -2.10225        0.60283       -1.67952
H         -1.42904       -1.57978        1.43626
H         -1.88064       -2.33694       -0.11822
H          0.09193       -1.10189       -1.11828
