19
../xyz/dsC7O2H10nsd_5625.xyz
O         -2.64325       -0.01102        0.12838
C         -1.61084       -0.94159        0.40156
C         -0.36823       -0.66174       -0.45223
C          0.79437       -1.62334       -0.33194
C          1.95734       -0.99116       -0.14157
C          1.77545        0.48249       -0.00653
C          0.92796        0.90134        1.19484
C          0.27319        0.69397       -0.13266
O         -0.32385        1.83660       -0.68051
H         -2.24268        0.86706        0.10479
H         -1.33435       -0.93894        1.46820
H         -2.01746       -1.93305        0.17243
H         -0.72065       -0.64127       -1.49802
H          0.66932       -2.69660       -0.41944
H          2.92516       -1.47344       -0.06056
H          2.50232        1.18580       -0.39646
H          0.78524        0.18691        1.99845
H          1.00728        1.93959        1.49908
H         -0.33280        1.73957       -1.64026
