19

O	-2.438134	0.289118	0.034873
C	-1.570527	-0.609305	0.745122
C	-0.203153	-0.611561	0.12197
C	0.269123	-1.212086	-1.224591
C	1.490008	-0.424513	-0.709969
C	1.206521	-0.797724	0.787892
C	1.283704	0.672747	1.254991
C	0.595409	0.718268	-0.1264
O	0.108397	1.79941	-0.831832
H	-2.585281	-0.08508	-0.840417
H	-1.525874	-0.220087	1.767769
H	-2.00693	-1.617482	0.794279
H	0.362359	-2.301936	-1.274117
H	-0.204347	-0.823409	-2.132148
H	2.476913	-0.307479	-1.158773
H	1.559773	-1.695238	1.291821
H	0.682509	0.951642	2.126784
H	2.283521	1.112543	1.320627
H	-0.831262	1.863354	-0.614236
