19

C	1.440467	1.52835	0.262267
C	1.344868	0.066775	-0.095488
O	2.502218	-0.484546	-0.67601
C	0.561953	-0.940045	0.708115
O	-0.621487	-0.367328	1.27897
C	-1.130784	-0.115629	-0.046959
C	-2.06304	1.011145	-0.339282
C	-2.544892	-0.43477	-0.395715
C	0.129314	-0.603925	-0.709291
H	1.597834	2.137893	-0.632935
H	0.536997	1.86624	0.771862
H	2.288132	1.695591	0.938865
H	3.205627	-0.447236	-0.017815
H	0.970408	-1.839785	1.154262
H	-2.393957	1.608178	0.503778
H	-1.943761	1.560415	-1.267123
H	-3.183296	-0.779895	0.410151
H	-2.750453	-0.877334	-1.365039
H	0.199304	-1.180481	-1.621577
