19

C	2.573526	0.841116	0.203116
C	1.228007	0.213828	-0.040845
C	0.051159	1.071207	-0.506425
C	-1.225212	0.335292	-0.069831
O	-2.27959	1.121681	0.403245
C	-1.531562	-1.0241	-0.631856
C	-0.820587	-0.896504	0.706907
C	0.686787	-0.959412	0.675415
O	1.250426	-1.095678	-0.640777
H	2.500505	1.648531	0.939135
H	3.281474	0.093499	0.569838
H	2.979377	1.266038	-0.721836
H	0.072104	2.036595	0.010385
H	0.095737	1.265838	-1.583892
H	-2.823235	1.37583	-0.35024
H	-2.572019	-1.328142	-0.586192
H	-0.959694	-1.398659	-1.47196
H	-1.342405	-1.181731	1.611818
H	1.228763	-1.474392	1.464319
