19
../xyz/dsC7O2H10nsd_1744.xyz
C         -1.93974       -1.21153       -0.42145
C         -0.76271       -0.33520       -0.08334
C         -0.76671        1.03864        0.65397
C         -0.10855        1.71365       -0.56373
C          0.14398        0.30188       -1.18419
O          1.46387       -0.19815       -1.04193
C          1.60091       -0.91800        0.18485
C          0.30486       -0.72964        0.95857
O          0.21576        0.56471        1.60418
H         -2.63351       -0.70357       -1.10012
H         -1.61265       -2.13361       -0.91660
H         -2.49923       -1.49401        0.47679
H         -1.62459        1.50341        1.14513
H         -0.83306        2.28538       -1.15304
H          0.77388        2.32539       -0.36657
H         -0.15940        0.18146       -2.22754
H          1.77522       -1.98273       -0.02934
H          2.45803       -0.52967        0.74689
H          0.08604       -1.54341        1.65837
