19

C	2.806683	-0.709498	-0.407334
C	1.585743	0.183196	-0.337994
O	1.249585	0.508487	1.056228
C	0.048897	-0.228583	0.936945
C	0.242225	-0.526438	-0.509419
C	-0.900536	0.407096	-0.102655
C	-0.904552	1.89808	-0.357001
C	-2.217468	-0.280932	-0.092183
O	-2.369732	-1.481439	-0.050813
H	3.016615	-0.9806	-1.447702
H	3.678812	-0.186327	-0.004743
H	2.651566	-1.62578	0.169059
H	1.73296	1.098994	-0.921773
H	-0.307079	-0.80988	1.778578
H	0.048741	-1.43539	-1.062468
H	-0.915239	2.132174	-1.426923
H	-1.790853	2.358009	0.093449
H	-0.027291	2.368325	0.092629
H	-3.093011	0.406555	-0.095585
