19
../xyz/dsC7O2H10nsd_5390.xyz
O          2.75540       -0.37825       -0.44026
C          2.10880        0.67328        0.26526
C          0.61151        0.52106        0.26628
C         -0.22729        1.50713       -0.06315
C         -1.72873        1.36447       -0.05403
C         -2.20290       -0.07734       -0.32572
C         -1.33065       -1.12861        0.34893
O         -0.28438       -1.69346       -0.45364
C          0.07635       -0.82067        0.63704
H          2.27910       -0.50930       -1.26734
H          2.50273        0.61282        1.28857
H          2.38382        1.66378       -0.12952
H          0.17704        2.48146       -0.33155
H         -2.11051        1.70990        0.91835
H         -2.16998        2.04049       -0.79435
H         -3.24310       -0.19313       -0.00548
H         -2.17596       -0.27375       -1.40268
H         -1.83933       -1.86087        0.97505
H          0.58550       -1.33368        1.45253
