19

C	2.541053	0.69254	0.487753
C	1.209125	0.238037	-0.040988
C	2e-06	1.173632	-1.4e-05
C	-1.209121	0.238042	0.040978
C	-2.541062	0.692529	-0.487744
O	-1.238976	-0.553061	1.246154
C	-0.74929	-1.159475	0.03781
C	0.749291	-1.159477	-0.037802
O	1.238982	-0.553077	-1.246151
H	2.46083	0.97573	1.542309
H	3.285568	-0.101533	0.391871
H	2.900556	1.565348	-0.068621
H	0.020682	1.817233	0.886312
H	-0.020674	1.817214	-0.886355
H	-2.900619	1.565263	0.068712
H	-2.460836	0.975829	-1.54227
H	-3.285538	-0.10159	-0.391952
H	-1.34343	-1.979674	-0.357616
H	1.343428	-1.979676	0.357631
