19
../xyz/dsC7O2H10nsd_5343.xyz
O         -3.22086       -0.05888        0.57287
C         -2.36961       -0.58268       -0.44481
C         -0.94598       -0.16295       -0.26560
C          0.14200       -0.92329       -0.14270
C          1.33697       -0.07121        0.02013
C          2.51533       -0.41126        0.89526
C          2.67688       -0.35669       -0.61146
O          0.88082        1.26766        0.02661
C         -0.53118        1.28694       -0.18083
H         -2.88528       -0.37873        1.41720
H         -2.43445       -1.67922       -0.50382
H         -2.77353       -0.18147       -1.38257
H          0.18399       -2.00532       -0.16622
H          2.93201        0.40800        1.47045
H          2.53641       -1.37600        1.39137
H          3.19890        0.49909       -1.02466
H          2.81001       -1.28354       -1.15959
H         -1.02333        1.81584        0.64724
H         -0.77092        1.83795       -1.10506
