19

C	2.382449	-1.064015	0.685339
C	1.783768	0.025419	-0.178526
O	0.673522	-0.484045	-0.987613
C	-0.246139	0.357966	-0.290137
C	0.091845	1.81355	-0.478904
C	0.860721	1.017272	0.532312
C	-1.577825	-0.14033	0.136346
C	-1.920836	-1.557224	-0.267967
O	-2.324168	0.571581	0.776114
H	2.797932	-1.858292	0.058483
H	3.189104	-0.656458	1.30467
H	1.625359	-1.500331	1.343871
H	2.54631	0.479225	-0.824052
H	0.555775	2.108983	-1.415707
H	-0.64333	2.495261	-0.066343
H	0.862786	1.238675	1.591378
H	-2.917759	-1.809272	0.094212
H	-1.875503	-1.658106	-1.358091
H	-1.179407	-2.255813	0.132795
