19

C	-0.490481	2.098622	-0.398493
C	-0.493958	0.634022	-0.065336
O	-1.418647	0.226251	0.961789
C	-1.561794	-0.322203	-0.382215
C	-0.938564	-1.674158	-0.518482
C	0.367003	-1.59691	-0.259876
C	0.825142	-0.176555	0.067643
C	1.95023	0.298383	-0.844572
O	1.316638	-0.092816	1.401777
H	0.102873	2.652601	0.33704
H	-0.061901	2.283469	-1.387903
H	-1.51034	2.490366	-0.379631
H	-2.483918	-0.047786	-0.88569
H	-1.500513	-2.572216	-0.744451
H	1.061591	-2.428029	-0.205563
H	2.255702	1.314083	-0.578869
H	2.818244	-0.35663	-0.727688
H	1.641791	0.279693	-1.893672
H	0.547075	-0.250234	1.965887
