19
../xyz/dsC7O2H10nsd_5302.xyz
O         -2.60722        0.07116       -0.47026
C         -1.71561       -0.47604        0.48519
C         -0.29850       -0.04284        0.21240
O         -0.24909        1.38550        0.24634
C          1.12628        1.66921       -0.05160
C          1.67238        0.25935       -0.20748
C          0.58065       -0.56761       -0.96868
C          0.96177       -1.80251       -0.12103
C          0.98026       -0.62910        0.88679
H         -2.39851        1.01183       -0.51492
H         -1.98855       -0.17552        1.50961
H         -1.80660       -1.56389        0.42127
H          1.20069        2.26848       -0.96763
H          1.58147        2.22878        0.77481
H          2.72782        0.11267       -0.43731
H          0.34612       -0.51953       -2.03215
H          0.20028       -2.57385        0.01658
H          1.93126       -2.25389       -0.34487
H          1.21311       -0.65121        1.95246
