19

O	-2.861453	-0.329332	-0.346533
C	-1.791386	-0.969597	0.312404
C	-0.443926	-0.536911	-0.282625
C	0.855152	-0.877286	0.510714
C	2.118157	-1.057187	-0.361743
C	2.334244	0.484443	-0.371323
C	1.16765	0.671685	0.660796
C	-0.177687	0.948219	0.012976
O	-0.891721	1.915255	-0.065585
H	-2.684345	0.62074	-0.308343
H	-1.79636	-0.764615	1.396572
H	-1.933503	-2.048299	0.186135
H	-0.421347	-0.80203	-1.344712
H	0.717636	-1.528957	1.374053
H	2.921016	-1.583328	0.160395
H	1.966512	-1.541317	-1.330354
H	3.300452	0.808334	0.018263
H	2.174464	0.980959	-1.331302
H	1.407642	1.190935	1.589055
