19
../xyz/dsC7O2H10nsd_2842.xyz
C         -2.54443       -0.27243       -0.44000
C         -1.08594       -0.03528       -0.13070
C         -0.48503        1.31740       -0.48892
O          0.66578        1.48059        0.35734
C          0.87284        0.24433        1.04973
C         -0.48199       -0.47221        1.17126
C         -0.15558       -1.23626       -0.12175
C          1.31847       -0.83215        0.01314
O          2.04968       -0.37887       -1.09342
H         -2.72830       -0.24546       -1.51989
H         -2.87209       -1.25003       -0.07417
H         -3.17699        0.49127        0.02623
H         -0.18575        1.38017       -1.54302
H         -1.19237        2.13069       -0.28079
H          1.49690        0.43587        1.92088
H         -1.01803       -0.77007        2.06173
H         -0.51922       -2.20881       -0.43494
H          1.87532       -1.64246        0.49681
H          1.96680        0.58462       -1.08065
