19

C	-3.728584	0.193843	-0.043179
C	-2.344557	-0.246284	-0.137491
C	-1.202043	-0.626115	-0.202801
C	0.158607	-1.078971	-0.331537
O	0.899198	-1.382203	0.867712
C	1.320017	-0.256901	0.089833
C	2.640105	-0.394282	-0.628698
C	1.043222	1.09996	0.719666
O	0.806406	2.089508	-0.269669
H	-3.853584	0.941453	0.747371
H	-4.065721	0.643629	-0.983443
H	-4.395517	-0.645428	0.181941
H	0.328055	-1.79523	-1.135635
H	3.466503	-0.328925	0.087649
H	2.714765	-1.350981	-1.151186
H	2.751786	0.420387	-1.350202
H	0.205824	1.002755	1.420992
H	1.920964	1.434139	1.28343
H	-0.03851	1.872272	-0.680028
