19

O	0.743508	1.907761	-0.303665
C	0.972476	0.585314	0.030444
C	2.220572	0.05981	0.743743
C	2.073515	-1.283659	-0.050092
C	0.849741	-0.717099	-0.775581
C	-0.197825	-0.321809	0.256104
C	-1.518762	0.129429	-0.27196
C	-2.692627	0.273586	0.59611
O	-2.567033	-0.84917	-0.279203
H	1.480093	2.214958	-0.843942
H	3.12288	0.605277	0.45034
H	2.179063	0.016402	1.837025
H	2.922836	-1.476937	-0.708747
H	1.889765	-2.176893	0.55534
H	0.571354	-0.890565	-1.808235
H	-0.267428	-0.896873	1.180186
H	-1.47539	0.745517	-1.169105
H	-2.6032	0.049702	1.658803
H	-3.474313	0.987262	0.33868
