19

C	2.686724	0.625102	-0.135017
C	2.589776	-0.85124	0.150348
C	1.412855	0.054841	0.428094
C	0.181738	-0.037874	-0.444745
O	-0.530552	1.205161	-0.52712
C	-1.656399	1.200126	0.344613
C	-1.968842	-0.255728	0.602159
O	-2.070844	-1.020101	-0.603081
C	-0.828102	-1.028162	0.105571
H	3.303785	1.236523	0.513377
H	2.67751	0.945434	-1.171499
H	2.520345	-1.527667	-0.695736
H	3.13735	-1.254832	0.994453
H	1.205931	0.271159	1.473275
H	0.478136	-0.293165	-1.470786
H	-1.439671	1.708278	1.298218
H	-2.470984	1.735368	-0.155377
H	-2.600505	-0.564031	1.430617
H	-0.507233	-1.97994	0.518939
