19

O	-3.597917	-0.218443	-0.084085
C	-2.492212	0.256961	-0.022257
C	-1.279801	-0.468367	0.521176
C	-0.062648	-0.361024	-0.417526
O	0.320264	1.0032	-0.629418
C	1.326611	1.364465	0.320121
C	2.069815	0.081908	0.635883
C	2.468798	-0.755196	-0.55122
C	1.170414	-1.036414	0.159943
H	-2.286892	1.291254	-0.37225
H	-1.017511	-0.0138	1.48706
H	-1.548503	-1.513724	0.701258
H	-0.330728	-0.752844	-1.40651
H	1.941322	2.139899	-0.149027
H	0.883374	1.787227	1.235249
H	2.626835	0.013023	1.562417
H	2.425883	-0.302166	-1.537154
H	3.274673	-1.466793	-0.412034
H	1.046912	-1.954127	0.722303
