19

C	2.381018	-0.975348	-0.045221
C	1.035694	-0.293237	0.034774
C	0.768988	0.768419	1.130529
C	0.071921	1.499983	-0.032318
C	-1.382193	1.060807	-0.18963
C	-1.491073	-0.461137	-0.028259
O	-2.547176	-1.01537	0.153423
C	-0.167623	-1.235984	-0.099644
O	0.867218	0.74449	-0.986372
H	2.476491	-1.529736	-0.984782
H	3.18631	-0.237426	0.002179
H	2.503467	-1.682689	0.781722
H	0.174251	0.483175	2.002227
H	1.686586	1.268199	1.445152
H	0.212382	2.578248	-0.139327
H	-2.055005	1.53737	0.531177
H	-1.738226	1.324536	-1.192775
H	-0.184415	-2.015421	0.669595
H	-0.122576	-1.740231	-1.072962
