19

C	-1.616654	-1.79794	0.324877
C	-0.990646	-0.494626	-0.090569
O	-1.856989	0.446934	-0.756704
C	-1.289934	0.821047	0.504821
C	-0.108156	1.77521	0.376874
C	0.961477	0.949054	-0.340434
C	1.515897	-0.252594	0.378446
O	2.810285	-0.721455	0.141539
C	0.41256	-0.44693	-0.631377
H	-1.721822	-2.465447	-0.537435
H	-0.993349	-2.307468	1.066823
H	-2.610232	-1.632879	0.74864
H	-2.005075	0.939565	1.316322
H	-0.395915	2.657421	-0.204743
H	0.224287	2.123343	1.362365
H	1.605802	1.438211	-1.064082
H	1.278785	-0.375535	1.432085
H	3.043108	-0.537983	-0.774198
H	0.640777	-0.962383	-1.56029
