19
../xyz/dsC7O2H10nsd_5656.xyz
C          2.64893       -1.22975       -0.05062
O          1.74147       -0.21862       -0.43079
C          0.59147       -0.14577        0.39189
C         -0.45396       -1.25444        0.15901
C         -1.78278       -0.50575       -0.03708
O         -2.87824       -1.01340       -0.10015
C         -1.45337        0.93089       -0.13003
C         -0.14589        1.14611        0.07567
C          0.59689        2.43802        0.04040
H          2.21189       -2.23491       -0.14042
H          3.50856       -1.16017       -0.72109
H          2.99295       -1.09460        0.98689
H          0.91068       -0.12799        1.44969
H         -0.21797       -1.79685       -0.76272
H         -0.53911       -1.98518        0.96642
H         -2.20410        1.68451       -0.33485
H          1.40577        2.38088       -0.69531
H         -0.05554        3.27851       -0.20556
H          1.07328        2.63614        1.00900
