19

C	2.429531	-0.054089	-0.597919
C	0.997398	0.254427	-0.242113
C	0.586085	1.570079	0.374355
C	0.467057	0.295513	1.184292
C	-0.744105	-0.630107	1.011802
O	-0.174352	-1.717587	0.189888
C	-0.09042	-0.664224	-0.842244
C	-1.47043	-0.218462	-0.308864
O	-1.996685	1.050262	-0.594122
H	2.62384	-1.129687	-0.523957
H	2.66917	0.265016	-1.619514
H	3.121898	0.459307	0.076961
H	1.41572	2.211008	0.662263
H	-0.293106	2.098885	0.043528
H	1.119291	0.127654	2.033682
H	-1.269736	-0.985808	1.89794
H	0.059658	-1.050692	-1.850785
H	-2.188645	-1.006768	-0.549101
H	-2.940507	1.030872	-0.412996
