19
../xyz/dsC7O2H10nsd_0461.xyz
C          2.79073        0.61396        0.28554
O          2.61049       -0.80010        0.19335
C          1.64326        0.04604       -0.43372
C          0.25092        0.03300        0.14150
C         -0.60941        1.24356       -0.31537
C         -2.03157        0.72327       -0.27173
O         -2.34571        0.01554        0.93639
C         -2.00931       -0.74379       -0.23529
C         -0.57290       -1.22286       -0.25714
H          2.64376        1.03903        1.27787
H          3.63694        1.01603       -0.27002
H          1.69235        0.03075       -1.52589
H          0.33314        0.05481        1.23069
H         -0.45432        2.12303        0.31673
H         -0.36956        1.53437       -1.34720
H         -2.84949        1.29414       -0.70428
H         -2.81161       -1.35743       -0.63739
H         -0.38583       -2.06553        0.41386
H         -0.32388       -1.55180       -1.27494
