19
../xyz/dsC7O2H10nsd_4111.xyz
C          2.64958       -0.71729        0.72902
C          1.77733       -0.13692       -0.37887
O          1.24098        1.13796        0.05754
C         -0.11582        1.20316       -0.32898
C         -1.30941        1.10077        0.68848
C         -1.90244       -0.06248       -0.21419
O         -2.41009       -1.22323        0.38568
C         -0.50116       -0.18043       -0.74894
C          0.55015       -0.98707       -0.69383
H          3.13753       -1.63789        0.39235
H          3.42498        0.00183        1.00763
H          2.04804       -0.94092        1.61496
H          2.40304        0.03898       -1.26992
H         -0.27054        2.01516       -1.05197
H         -0.97304        0.68902        1.64143
H         -1.93139        1.98713        0.83799
H         -2.60637        0.35410       -0.94897
H         -3.33613       -1.07444        0.60008
H          0.56748       -2.06914       -0.68555
