19
../xyz/dsC7O2H10nsd_5019.xyz
C         -0.62234        2.24401        0.21369
C          0.27854        1.07626        0.01756
C          1.53871        0.95414       -0.40993
C          1.74857       -0.56628       -0.33844
C          1.17404       -0.90265        1.06906
C         -0.08484       -0.41227        0.28890
C         -1.50913       -0.82560        0.54664
O         -2.33257       -0.48341       -0.55680
O          0.48643       -1.06834       -0.90490
H         -0.90007        2.36102        1.26975
H         -0.14777        3.17362       -0.11197
H         -1.55642        2.10452       -0.34086
H          2.25026        1.70216       -0.72837
H          2.64402       -1.02335       -0.75646
H          1.14849       -1.97587        1.27620
H          1.51951       -0.32309        1.92719
H         -1.54479       -1.90513        0.75675
H         -1.90859       -0.29948        1.42055
H         -1.87683       -0.80612       -1.34387
