19

C	-2.931989	-0.542561	-0.271687
C	-1.618521	-0.214704	0.411344
O	-1.267361	1.189004	0.25098
C	-0.086982	0.865611	-0.500886
C	1.159704	0.778301	0.396459
O	2.344286	0.504009	-0.373816
C	2.230654	-0.918783	-0.137081
C	0.900853	-0.7505	0.615835
C	-0.331623	-0.66809	-0.310045
H	-2.882958	-0.316202	-1.34139
H	-3.172585	-1.604609	-0.149705
H	-3.742783	0.047284	0.166722
H	-1.664777	-0.482936	1.476022
H	-0.001207	1.407098	-1.446213
H	1.300566	1.53899	1.168289
H	2.201481	-1.49696	-1.069341
H	3.059105	-1.28343	0.483562
H	0.790432	-1.2459	1.580625
H	-0.435245	-1.40308	-1.109508
