19

O	2.401305	-0.151676	-0.151726
C	1.149357	-0.357764	0.499406
C	0.603075	-1.750468	0.281909
C	-0.602974	-1.750508	-0.281854
C	-1.149319	-0.357838	-0.499417
O	-2.401303	-0.151786	0.151652
C	-1.2e-05	0.541004	1e-06
C	0.314867	1.849353	-0.682156
C	-0.314982	1.849314	0.682195
H	2.262146	-0.312646	-1.09225
H	1.379639	-0.174376	1.55592
H	1.186449	-2.627117	0.542118
H	-1.186306	-2.627194	-0.542032
H	-1.379562	-0.174503	-1.555949
H	-2.262177	-0.31272	1.092187
H	1.361782	2.120344	-0.762685
H	-0.300322	2.138564	-1.528565
H	0.300182	2.138543	1.528615
H	-1.361915	2.120234	0.762724
