19

C	2.607273	-0.548363	-0.242723
C	1.264962	-0.49918	0.484021
C	0.114299	-1.283668	-0.217727
C	-1.116863	-0.394687	-0.040007
O	-2.390098	-0.95391	0.032515
C	-1.004426	1.037783	-0.545157
O	0.361369	1.387383	-0.764464
C	0.672811	0.909585	0.594351
C	-0.825021	0.743388	0.91464
H	2.961166	-1.578279	-0.353038
H	2.510602	-0.10885	-1.239952
H	3.375417	0.010811	0.302692
H	1.384792	-0.88208	1.506546
H	0.345276	-1.454936	-1.275215
H	-0.065552	-2.257137	0.247269
H	-2.658947	-1.203813	-0.858395
H	-1.777759	1.56013	-1.09769
H	1.265957	1.643915	1.143241
H	-1.389334	1.013315	1.795754
