19

C	-1.596792	-1.409998	-0.756291
C	-0.723683	-0.447253	0.022133
C	0.383307	-1.111322	0.874281
C	1.615659	-0.252644	0.661475
O	2.086943	-0.295138	-0.695062
C	1.331951	0.845927	-0.275774
C	-0.10707	0.781159	-0.723424
C	-1.094518	1.612671	0.113151
O	-1.527918	0.451796	0.84611
H	-2.348791	-0.871579	-1.3404
H	-0.987783	-2.012069	-1.438499
H	-2.118847	-2.087394	-0.07204
H	0.069266	-1.116472	1.922452
H	0.581001	-2.144201	0.569639
H	2.394697	-0.191718	1.417396
H	1.871997	1.790814	-0.263653
H	-0.219788	0.824779	-1.808344
H	-0.653021	2.374619	0.76826
H	-1.914059	2.068718	-0.456508
