19

O	-2.334511	-0.621279	-0.193078
C	-1.073404	-0.488377	0.45084
C	0.021232	-1.300217	-0.256392
C	1.365059	-1.559729	0.386966
C	1.250761	-0.533774	-0.707424
C	1.186115	0.933291	-0.316824
C	-0.142002	1.54472	-0.81332
C	-0.651946	0.988133	0.535358
O	0.707136	1.040286	1.056222
H	-2.233077	-0.327044	-1.10514
H	-1.236942	-0.864466	1.466933
H	-0.373228	-2.083608	-0.895481
H	1.520062	-1.192884	1.394613
H	1.854936	-2.498443	0.152824
H	1.681361	-0.746632	-1.681378
H	2.123702	1.475509	-0.464873
H	-0.134429	2.635504	-0.821327
H	-0.562535	1.161334	-1.74722
H	-1.355747	1.584389	1.120672
