19

C	-2.159439	-1.545044	0.369159
C	-1.377017	-0.262723	0.543109
C	-1.145121	0.686679	-0.61805
O	-1.151663	2.064257	-0.424152
C	0.016518	-0.091634	-0.030133
O	0.910873	0.715984	0.727538
C	2.258269	0.296644	0.474688
C	2.129005	-0.883857	-0.448129
C	0.844327	-1.095575	-0.724276
H	-3.229812	-1.369426	0.521319
H	-2.038571	-1.956613	-0.638595
H	-1.838387	-2.314153	1.080109
H	-1.497573	0.242868	1.498457
H	-1.527571	0.396078	-1.594549
H	-0.324171	2.270547	0.034009
H	2.828965	1.124142	0.02582
H	2.742323	0.045334	1.430039
H	2.978176	-1.442706	-0.818389
H	0.433686	-1.864929	-1.363514
