19

C	3.014783	0.371147	0.083293
C	1.546426	0.743712	-0.143258
C	0.584755	-0.280563	0.456776
C	0.494591	-1.645948	-0.322273
C	-0.991651	-1.372945	-0.577548
O	-1.632682	-1.199561	0.669888
C	-0.90931	-0.066964	0.146735
C	-1.708892	1.145299	-0.103802
O	-1.268937	2.270027	-0.114133
H	3.680709	1.119014	-0.357173
H	3.245346	0.307623	1.152413
H	3.260785	-0.59748	-0.365601
H	1.333433	1.724901	0.290983
H	1.348876	0.842576	-1.2188
H	0.764108	-0.391836	1.53056
H	1.089004	-1.632114	-1.239295
H	0.700101	-2.562358	0.235224
H	-1.611484	-1.660619	-1.420362
H	-2.782132	0.924133	-0.293527
