19

C	0.738389	-0.220561	1.513991
C	0.49292	0.705754	0.336611
C	1.736745	0.838275	-0.54887
C	1.703042	-0.727477	-0.747794
C	0.456049	-0.780297	0.137143
O	-0.698101	-1.472664	-0.205658
C	-1.861348	-0.648495	-0.06115
C	-1.638095	0.796731	-0.518215
O	-0.66023	1.478475	0.276982
H	1.723896	-0.311133	1.964987
H	-0.089649	-0.26107	2.212394
H	1.535566	1.369876	-1.481436
H	2.627411	1.266679	-0.079257
H	1.483923	-1.002764	-1.78124
H	2.570962	-1.294597	-0.399168
H	-2.641732	-1.113182	-0.670882
H	-2.199529	-0.648863	0.986203
H	-1.340766	0.804918	-1.577969
H	-2.56965	1.360063	-0.41452
