19

C	-1.739982	-1.189147	0.0
C	-2.319623	0.208462	-1e-06
C	-0.835969	0.000654	0.0
C	0.143928	0.556075	1.045974
C	0.494493	1.653214	2e-06
C	0.143928	0.556078	-1.045972
O	1.279141	-0.304611	-1.183483
C	1.510379	-1.045997	-1e-06
O	1.27914	-0.304614	1.183483
H	-1.813881	-1.773171	0.911967
H	-1.813882	-1.773173	-0.911966
H	-2.787221	0.568334	-0.911262
H	-2.787223	0.568336	0.911259
H	-0.194275	0.818253	2.050064
H	-0.220422	2.478969	3e-06
H	1.524125	2.013408	3e-06
H	-0.194273	0.818259	-2.050062
H	0.874545	-1.942582	-3e-06
H	2.563336	-1.338873	-1e-06
