19
../xyz/dsC7O2H10nsd_5109.xyz
O         -2.86800        0.43267        0.42291
C         -2.04158       -0.13696       -0.58083
C         -0.58610       -0.06717       -0.20248
C          0.13639        1.27428       -0.08560
C          1.62890        0.97020       -0.25721
C          2.33607        0.08514        0.73427
C          1.79266       -0.51541       -0.54105
C          0.41157       -1.12292       -0.45783
O         -0.21434       -1.00944        0.83193
H         -2.69120       -0.05704        1.23432
H         -2.31160       -1.18497       -0.77903
H         -2.22831        0.44011       -1.49275
H         -0.20600        1.93264       -0.89189
H         -0.09953        1.77381        0.85911
H          2.22816        1.69892       -0.79163
H          3.41275        0.19390        0.80858
H          1.83271       -0.17511        1.65702
H          2.46887       -0.89307       -1.29840
H          0.18542       -2.03788       -0.99960
