19

C	2.271344	-0.004174	-0.328471
C	1.260477	1.123393	-0.588392
C	0.207262	0.879111	0.516907
C	-1.182838	1.385235	0.253235
C	-2.165942	0.555628	-0.088176
C	-1.921571	-0.916395	-0.281543
O	-0.548084	-1.234942	-0.4054
C	0.252501	-0.652146	0.615115
O	1.572095	-1.028193	0.399131
H	2.673723	-0.431643	-1.252554
H	3.11418	0.333091	0.287794
H	1.716114	2.114845	-0.540493
H	0.79152	1.005067	-1.56796
H	0.579706	1.294099	1.462868
H	-1.367416	2.449683	0.371028
H	-3.181833	0.911001	-0.237989
H	-2.384081	-1.487084	0.545778
H	-2.396429	-1.2667	-1.205054
H	-0.064968	-1.041191	1.59468
