19
../xyz/dsC7O2H10nsd_2118.xyz
O         -2.52649       -0.61288        0.01831
C         -1.20062       -0.21898        0.08720
C         -0.16662       -0.80903        1.04740
C          0.92946       -0.47594       -0.02601
O          1.89838       -1.44668       -0.29869
C          1.58006        0.88145        0.25559
C          0.39297        1.87728        0.23490
C         -0.72477        1.11018       -0.47784
C         -0.21548       -0.19244       -1.05462
H         -3.03243       -0.08298        0.64427
H         -0.05544       -0.38209        2.05138
H         -0.30431       -1.89243        1.12841
H          1.45267       -2.28686       -0.44798
H          2.12877        0.87972        1.20182
H          2.29388        1.10008       -0.54540
H          0.09765        2.18461        1.24439
H          0.64707        2.79014       -0.31148
H         -1.48351        1.64708       -1.03751
H         -0.28953       -0.51596       -2.08452
