19

C	-2.512315	-0.155455	-0.234681
C	-1.191164	0.266121	0.38734
O	-0.579235	1.190072	-0.517636
C	0.76106	1.545442	-0.200809
C	1.588909	0.29359	0.143384
O	0.941521	-0.298565	1.277063
C	-0.214569	-0.898926	0.678018
C	0.343765	-1.482878	-0.613593
C	1.420697	-0.772305	-0.931385
H	-3.055988	-0.82894	0.435486
H	-3.135602	0.72265	-0.422531
H	-2.347475	-0.664105	-1.188851
H	-1.368424	0.765652	1.353762
H	1.151761	2.071371	-1.078315
H	0.7923	2.225808	0.664372
H	2.618523	0.547631	0.410375
H	-0.64568	-1.617486	1.380923
H	-0.119518	-2.278538	-1.180781
H	2.033515	-0.849621	-1.819497
