19
../xyz/dsC7O2H10nsd_2220.xyz
C         -2.30192       -0.40829        0.09561
C         -0.81038       -0.24054        0.04143
O         -0.11310       -1.47303       -0.00988
C          1.18665       -0.92511       -0.11579
C          1.30132       -0.06989        1.16180
C         -0.04127        0.69207        1.06929
C          0.03412        1.78058       -0.03182
C         -0.11692        0.64460       -1.06434
O          1.12027       -0.05603       -1.24468
H         -2.59771       -0.94271        1.00366
H         -2.80024        0.56563        0.09557
H         -2.65657       -0.97699       -0.76931
H          1.93118       -1.70013       -0.29203
H          1.34608       -0.71810        2.04127
H          2.17441        0.58662        1.15460
H         -0.50020        0.93174        2.02868
H         -0.83821        2.44155       -0.02694
H          0.94571        2.37922       -0.09600
H         -0.57135        0.82503       -2.04001
