19
../xyz/dsC7O2H10nsd_2698.xyz
O         -0.91626        1.91308        0.07908
C         -0.99275        0.65758        0.67733
C          0.24663       -0.33004        0.71899
C         -0.73813       -1.52058        0.44749
C         -1.71334       -0.45965       -0.07520
O         -2.50163       -0.41137       -0.97912
C          1.24758       -0.10246       -0.38342
C          2.44677        0.77688       -0.15049
C          2.62508       -0.71433       -0.29718
H         -1.32841        1.83978       -0.79074
H         -1.39275        0.75662        1.69600
H          0.74628       -0.36206        1.68975
H         -0.42992       -2.28557       -0.26737
H         -1.09408       -1.99973        1.36382
H          0.81446       -0.05532       -1.38038
H          2.77726        1.42018       -0.95791
H          2.57102        1.20869        0.83695
H          3.07788       -1.09367       -1.20646
H          2.87037       -1.28695        0.59151
