19
../xyz/dsC7O2H10nsd_5482.xyz
C         -2.78342       -0.46996       -0.54350
O         -1.83595       -0.45573        0.51344
C         -0.52188       -0.64777        0.04873
C          0.49293       -0.29729        1.11370
C          1.96414       -0.40483        0.62134
C          2.13285       -0.83407       -0.81495
C          1.68403        0.57122       -0.50979
C          0.21721        0.66430       -0.04286
O         -0.43490        1.87733       -0.10694
H         -2.78881       -1.44156       -1.05832
H         -3.76508       -0.30236       -0.09427
H         -2.58175        0.31594       -1.28380
H         -0.43206       -1.49676       -0.63094
H          0.20522       -0.26972        2.15718
H          2.79571       -0.39300        1.31381
H          3.16855       -0.90595       -1.13545
H          1.49010       -1.56470       -1.29209
H          2.24429        1.45064       -0.79851
H         -1.28458        1.74514        0.33433
