19
../xyz/dsC7O2H10nsd_3927.xyz
C          2.86324        0.19268       -0.40731
C          1.64716        0.17066        0.49556
C          0.65700       -1.07999        0.43054
O          0.22747       -0.62916       -0.89898
C          0.23851        0.60271       -0.01368
C         -1.01466        1.42016       -0.32532
C         -1.81896        0.22021        0.37350
O         -2.47698       -0.66748       -0.47208
C         -0.45841       -0.22535        1.07258
H          2.60864       -0.18141       -1.40077
H          3.25215        1.21149       -0.50672
H          3.66567       -0.42596        0.00877
H          1.86387        0.52341        1.50891
H          0.91677       -2.13706        0.53999
H         -1.07811        2.34095        0.26031
H         -1.23178        1.62167       -1.37690
H         -2.55083        0.56928        1.10585
H         -1.78199       -1.02175       -1.04503
H         -0.35165        0.06598        2.11893
