19
../xyz/dsC7O2H10nsd_4159.xyz
C         -2.54446        0.02343       -0.03505
C         -1.12384       -0.43124       -0.02568
C         -0.42998       -1.17591       -0.89325
C          1.00205       -1.20799       -0.37156
C          1.64252        0.18517       -0.64929
C          0.81990        1.07835        0.32916
O          0.11441        2.15080       -0.26389
C         -0.08728       -0.00967        1.01711
O          0.80295       -1.12652        1.05177
H         -2.60225        1.11848       -0.01896
H         -3.08213       -0.33957       -0.91542
H         -3.07558       -0.32794        0.85857
H         -0.76757       -1.61020       -1.82551
H          1.60948       -2.07551       -0.62661
H          2.70338        0.17673       -0.38934
H          1.54446        0.51727       -1.68612
H          1.46604        1.53559        1.08099
H         -0.36066        1.79696       -1.02374
H         -0.44749        0.24106        2.01454
