19

C	-2.487733	-0.520926	-0.160858
C	-1.899844	0.612576	0.699586
C	-0.560142	0.232054	0.034355
C	0.34305	1.293483	-0.656394
C	1.533783	0.839917	0.220318
O	2.343601	-0.162149	-0.422201
C	1.569146	-1.233336	0.173711
C	0.640345	-0.241316	0.894586
O	-1.210697	-0.751294	-0.793463
H	-2.834451	-1.402337	0.392093
H	-3.255713	-0.232431	-0.887197
H	-2.259136	1.612508	0.448149
H	-1.948363	0.473473	1.781407
H	0.50184	1.126553	-1.723953
H	0.009831	2.322614	-0.49049
H	2.12822	1.595438	0.739134
H	1.087486	-1.873695	-0.572854
H	2.188729	-1.844543	0.840468
H	0.486695	-0.364747	1.966731
