19

O	2.880264	0.133143	0.03999
C	1.812621	-0.247825	-0.365059
C	0.5671	-0.402247	0.479244
C	-0.0789	-1.80393	0.299762
C	-1.543326	-1.477965	-0.044567
O	-1.482698	-0.232491	-0.726215
C	-0.543502	0.541928	-0.025306
C	-1.048109	1.692024	0.809185
C	-0.333422	1.940441	-0.507584
H	1.65867	-0.504625	-1.439686
H	0.831179	-0.189252	1.516803
H	0.390508	-2.334997	-0.535506
H	0.025528	-2.425733	1.190839
H	-2.014863	-2.203982	-0.710439
H	-2.148922	-1.390726	0.870486
H	-2.121815	1.842094	0.824751
H	-0.532149	1.937925	1.73145
H	-0.933757	2.258641	-1.352282
H	0.670315	2.350878	-0.480665
