19

C	-2.174598	0.423768	-0.746829
C	-0.863763	-0.191871	-0.327882
O	-0.506508	-1.288904	-1.134021
C	-0.444555	-0.376867	1.102869
O	0.126844	-1.576843	1.472827
C	0.313657	0.649427	0.223405
C	0.131973	2.131547	0.515782
C	1.600266	0.27521	-0.285828
C	2.652074	-0.051515	-0.775761
H	-2.091039	0.887373	-1.735495
H	-2.939654	-0.357015	-0.803163
H	-2.515046	1.180594	-0.03695
H	0.340527	-1.092827	-1.560024
H	-1.05166	0.061529	1.891091
H	0.130317	-2.120625	0.669836
H	0.913664	2.477847	1.198299
H	0.189984	2.730923	-0.398378
H	-0.833432	2.327536	0.988972
H	3.603319	-0.327549	-1.159174
