19

C	2.735297	0.553854	0.217866
C	1.361268	0.334499	-0.403495
C	1.018727	-1.153548	-0.728221
C	0.041705	-1.196747	0.484356
C	-1.442729	-1.411602	0.183613
O	-1.954869	-0.14245	-0.257691
C	-1.107458	0.883696	0.044055
O	-1.391489	2.025967	-0.174384
C	0.186955	0.336702	0.626973
H	2.90435	-0.123787	1.0629
H	3.526818	0.373046	-0.517332
H	2.842807	1.580067	0.584316
H	1.215852	1.031998	-1.232975
H	0.514424	-1.289191	-1.689287
H	1.861134	-1.847796	-0.680815
H	0.386279	-1.807594	1.318839
H	-1.624073	-2.139929	-0.612328
H	-2.005524	-1.717804	1.073193
H	0.386206	0.791743	1.5992
