19

C	-2.927913	-0.757219	0.246788
C	-2.022661	0.115734	-0.632389
C	-0.599398	0.170333	-0.137205
C	0.28908	-1.05945	-0.138324
C	1.726324	-0.51709	-0.040872
O	2.707446	-1.182485	0.151564
C	1.711811	1.008014	-0.253008
C	0.251149	1.377702	-0.193051
O	-0.369313	0.975698	1.036802
H	-3.959228	-0.736101	-0.116483
H	-2.598683	-1.801308	0.252144
H	-2.922575	-0.39607	1.279414
H	-2.024949	-0.25963	-1.663739
H	-2.414834	1.138206	-0.66407
H	0.090451	-1.740403	0.693683
H	0.187819	-1.635849	-1.066782
H	2.319573	1.502528	0.509948
H	2.154314	1.240088	-1.22999
H	-0.107301	2.314688	-0.612693
