19
../xyz/dsC7O2H10nsd_5405.xyz
C         -0.11928        2.05152        0.89652
O          0.08411        1.67548       -0.45622
C          0.01528        0.29116       -0.71390
C         -1.28805       -0.40898       -0.24067
O         -2.38796        0.07308       -0.27496
C         -0.90592       -1.77881        0.33302
C          0.59245       -1.68142        0.44672
C          1.10123       -0.56869       -0.09354
C          2.53857       -0.16729       -0.17694
H          0.56910        1.53089        1.57734
H          0.07661        3.12457        0.95051
H         -1.14941        1.86117        1.22027
H          0.05412        0.21901       -1.81160
H         -1.42684       -1.96364        1.28004
H         -1.23558       -2.56828       -0.35726
H          1.18923       -2.46142        0.90883
H          3.18446       -0.87416        0.35083
H          2.86945       -0.11296       -1.22204
H          2.69393        0.83150        0.24513
