19

C	1.338953	-1.25711	-1.095976
C	1.01324	-0.303897	0.059013
O	1.120157	-1.093992	1.248396
C	-0.359455	0.371094	-0.060105
C	-1.537057	-0.623487	-0.096069
C	-2.829872	0.046284	-0.03261
C	-3.883119	0.62269	0.022784
C	2.131164	0.745685	0.114562
O	2.020563	1.905512	-0.182345
H	0.676666	-2.125667	-1.062206
H	1.22483	-0.753899	-2.059713
H	2.366659	-1.622288	-1.00868
H	0.8813	-0.540136	2.000825
H	-0.489252	1.049862	0.791515
H	-0.370597	1.009014	-0.947978
H	-1.490794	-1.229713	-1.008672
H	-1.43891	-1.325296	0.74073
H	-4.819649	1.120493	0.069866
H	3.090861	0.317911	0.486325
