19
../xyz/dsC7O2H10nsd_1154.xyz
C         -2.17898        1.32050       -0.25091
C         -1.87844       -0.11847        0.11420
O         -2.56160       -1.04474       -0.25373
C         -0.62747       -0.35411        0.97289
C          0.62576       -0.20384        0.15783
C          1.19161       -1.19703       -0.80925
C          2.06120       -0.66196        0.31484
C          2.42181        0.78474        0.00622
O          1.02492        1.12656       -0.21791
H         -2.43225        1.88418        0.65531
H         -1.28863        1.79548       -0.67569
H         -3.01428        1.36281       -0.95080
H         -0.59821        0.35525        1.80840
H         -0.68380       -1.37226        1.36553
H          0.85760       -2.22094       -0.67563
H          1.37679       -0.90180       -1.83866
H          2.52457       -1.29227        1.06159
H          2.81676        1.33820        0.86524
H          3.04188        0.97778       -0.87706
