19

C	-2.746126	-0.65559	-0.542023
O	-1.382349	-0.757451	-0.19709
C	-0.958596	0.215476	0.708876
C	-0.617424	1.618357	0.039179
C	0.78292	1.060631	-0.087994
C	1.635056	0.586968	-0.987729
C	2.170622	-0.737029	-0.465726
O	1.351355	-1.072404	0.672838
C	0.592023	0.061395	1.00336
H	-3.394314	-0.741689	0.343881
H	-2.978783	0.293847	-1.046903
H	-2.967319	-1.479601	-1.224334
H	-1.618858	0.260493	1.587748
H	-1.142709	1.873329	-0.88303
H	-0.719693	2.438047	0.756647
H	1.818094	0.935964	-1.996072
H	2.067884	-1.525762	-1.223344
H	3.227889	-0.708732	-0.158294
H	0.804923	0.391695	2.030065
