19

C	-3.011321	-0.756143	-0.050377
C	-1.669796	-0.095932	-0.017884
C	-1.339163	1.094614	-0.524484
C	0.09347	1.470783	-0.260649
C	0.73177	0.151008	0.288221
O	1.611976	0.370928	1.356867
C	-0.49169	-0.736902	0.679904
C	1.481882	-0.524397	-0.843338
O	2.655569	-0.798093	-0.768209
H	-2.95953	-1.73841	-0.537198
H	-3.388321	-0.933915	0.964938
H	-3.746932	-0.148613	-0.584329
H	-2.028275	1.754894	-1.040902
H	0.614634	1.853585	-1.147909
H	0.193159	2.241613	0.513352
H	2.472019	0.026487	1.066862
H	-0.356406	-1.792004	0.405651
H	-0.596012	-0.713767	1.771876
H	0.884393	-0.750739	-1.749963
