19
../xyz/dsC7O2H10nsd_5120.xyz
O          2.74382       -0.51174        0.42132
C          1.84188       -0.21396       -0.63448
C          0.47500        0.11767       -0.11758
O          0.32706        1.44144        0.45409
C         -0.48924        1.06914       -0.67049
C         -1.82806        0.37745       -0.32545
C         -1.46619       -1.09344       -0.74060
C         -0.47598       -0.95368        0.47082
C         -1.59030       -0.09917        1.13455
H          2.77321        0.26629        0.98940
H          2.20772        0.61594       -1.25682
H          1.79980       -1.11357       -1.25836
H         -0.35154        1.65258       -1.57543
H         -2.74978        0.86580       -0.63995
H         -2.27502       -1.80601       -0.56004
H         -1.03896       -1.25218       -1.73601
H         -0.01963       -1.81177        0.96165
H         -2.41409       -0.71884        1.49287
H         -1.30132        0.64009        1.87881
