19
../xyz/dsC7O2H10nsd_0975.xyz
O          4.05526        0.14398       -0.09776
C          2.98938       -0.12473        0.39320
C          1.70190       -0.31779       -0.37075
C          0.58573        0.60914        0.14034
C         -0.75720        0.27358       -0.48717
O         -1.17463       -1.08105       -0.12739
C         -2.28123       -0.55382        0.61032
C         -3.22804        0.17042       -0.29175
C         -1.97979        0.86981        0.20878
H          2.88460       -0.24944        1.49785
H          1.89886       -0.16875       -1.43635
H          1.37171       -1.35473       -0.21863
H          0.49585        0.52155        1.23032
H          0.82847        1.65619       -0.08220
H         -0.71609        0.39032       -1.57859
H         -2.53374       -1.02275        1.55411
H         -3.31434       -0.13319       -1.33150
H         -4.15097        0.50850        0.16962
H         -1.99393        1.78925        0.77869
