19

O	-2.761953	-0.068631	-0.512585
C	-1.929756	0.098474	0.622703
C	-0.480792	0.129788	0.21145
C	0.136248	1.339206	-0.5331
C	1.515038	1.002367	0.098725
C	2.181471	-0.240155	-0.55311
C	1.166319	-1.146061	0.178593
O	-0.129329	-1.11363	-0.466346
C	0.785498	0.03571	1.113404
H	-2.431233	-0.849565	-0.972859
H	-2.216999	1.044424	1.094188
H	-2.081545	-0.708474	1.357568
H	0.050787	1.346001	-1.622348
H	-0.260075	2.27775	-0.131398
H	2.157127	1.831461	0.393505
H	2.21104	-0.306006	-1.644274
H	3.187976	-0.395993	-0.150188
H	1.449341	-2.157659	0.475767
H	0.819677	0.060171	2.1995
