19
../xyz/dsC7O2H10nsd_2585.xyz
C         -0.10438        2.16021       -0.11337
C          0.68599        0.89536       -0.00487
C          2.01115        0.74354       -0.04429
C          2.45471       -0.68419        0.15030
C          1.12968       -1.47937        0.04364
C          0.01480       -0.43840        0.24780
O         -1.05404       -0.70224       -0.70987
C         -2.31224       -0.48214       -0.31172
O         -2.67088       -0.05566        0.75306
H         -0.78190        2.12882       -0.97506
H         -0.73453        2.30813        0.77131
H          0.54809        3.02958       -0.22796
H          2.71611        1.56058       -0.16107
H          3.19854       -1.00451       -0.58810
H          2.92526       -0.81634        1.13400
H          1.01788       -1.89339       -0.96225
H          1.06449       -2.30848        0.75157
H         -0.44244       -0.46984        1.24107
H         -2.99047       -0.76148       -1.13402
