19

C	3.003207	-0.2161	-0.677351
C	2.82561	0.949275	0.257086
C	1.892252	-0.236721	0.346627
C	0.481432	-0.082964	-0.099097
O	-0.309786	-1.280279	-0.202237
C	-0.668093	-0.319234	0.788743
C	-1.97412	0.391909	0.597719
C	-3.037635	-0.177523	-0.241796
O	-2.236116	0.91508	-0.700966
H	2.725857	-0.081234	-1.717503
H	3.845934	-0.88031	-0.523618
H	3.543807	1.090485	1.056676
H	2.430338	1.873498	-0.151669
H	2.023521	-0.903294	1.193642
H	0.317836	0.609676	-0.925304
H	-0.473688	-0.630276	1.817421
H	-2.253646	1.05282	1.41998
H	-2.849719	-1.123829	-0.742667
H	-4.078928	0.062208	-0.032919
