19

C	2.564889	-1.239052	-0.421892
C	1.5793	-0.380447	0.371365
O	1.62662	0.924192	-0.179774
C	0.56003	1.760777	0.244916
C	-0.783136	1.237189	-0.263831
C	-0.894895	-0.231307	0.052668
C	-2.219777	-0.874622	0.052263
O	-3.258191	-0.30111	-0.187605
C	0.189655	-0.954388	0.363619
H	2.241542	-1.324135	-1.462823
H	3.553883	-0.774861	-0.400977
H	2.638149	-2.241648	0.009371
H	1.91906	-0.346565	1.425718
H	0.543975	1.828949	1.34503
H	0.779808	2.755471	-0.151233
H	-1.618067	1.778235	0.194174
H	-0.869371	1.396827	-1.345488
H	-2.202891	-1.960885	0.298466
H	0.090087	-2.004948	0.632145
