19
../xyz/dsC7O2H10nsd_6075.xyz
C         -3.84177        0.04505        0.16057
C         -2.53118       -0.51414       -0.39901
C         -1.31313        0.05287        0.31481
O         -0.14777       -0.52265       -0.26388
C          1.06525       -0.10133        0.32063
C          2.15528       -0.97474       -0.32689
O          3.12112       -1.38168        0.25371
C          1.37807        1.30884        0.06431
C          1.65693        2.45202       -0.18232
H         -4.70247       -0.37411       -0.36791
H         -3.95682       -0.19324        1.22364
H         -3.88740        1.13475        0.05806
H         -2.51365       -1.60619       -0.30877
H         -2.44543       -0.28614       -1.46745
H         -1.27918        1.14802        0.21804
H         -1.34906       -0.18252        1.39148
H          1.08083       -0.29372        1.40458
H          1.94860       -1.18929       -1.39621
H          1.90118        3.46568       -0.38661
