19
../xyz/dsC7O2H10nsd_5890.xyz
C         -3.32012       -0.71901        0.47957
C         -2.16414       -0.02069       -0.23924
C         -0.92136        0.14112        0.66140
C          0.17977        0.89253       -0.06341
O          0.19202        2.09255       -0.17835
C          1.31134        0.04176       -0.71015
O          0.78280       -1.11595       -1.35061
C          2.29937       -0.28811        0.31018
C          3.06404       -0.60102        1.18424
H         -3.63455       -0.15699        1.36575
H         -4.18852       -0.81780       -0.17906
H         -3.03559       -1.72477        0.80822
H         -1.88004       -0.58454       -1.13379
H         -2.47732        0.97383       -0.57608
H         -1.18565        0.72382        1.55003
H         -0.56577       -0.84212        0.98713
H          1.76156        0.67453       -1.48285
H          0.95325       -1.87653       -0.78617
H          3.76073       -0.86171        1.94294
