19

C	1.487194	-1.549858	-0.69799
C	0.75672	-0.405314	-0.055857
O	1.357129	0.191743	1.110875
C	1.189845	0.999141	-0.067337
C	-3e-06	1.946331	2e-06
C	-1.189849	0.999138	0.06733
O	-1.357122	0.191736	-1.11088
C	-0.756717	-0.405315	0.05586
C	-1.487196	-1.549855	0.697995
H	2.557407	-1.337696	-0.757006
H	1.355811	-2.472377	-0.122201
H	1.104488	-1.723316	-1.709041
H	2.115746	1.308284	-0.545959
H	0.052169	2.588377	0.885706
H	-0.052176	2.58839	-0.885692
H	-2.115754	1.308279	0.545948
H	-1.104495	-1.723311	1.709049
H	-2.557408	-1.337687	0.757005
H	-1.355815	-2.472375	0.12221
