19
../xyz/dsC7O2H10nsd_0299.xyz
C          1.66732       -0.50716        0.70098
C          1.17319       -0.34675       -0.76384
O          0.78099        0.98359       -1.04871
C          0.18224        1.62743        0.07368
C         -0.65289        0.64110        0.90511
C         -1.86157        0.13736        0.09697
O         -1.34220       -0.83948       -0.80945
C         -0.07383       -1.21970       -0.34153
C          0.17257       -0.67015        1.08133
H          2.21126       -1.44557        0.83523
H          2.25139        0.30575        1.13647
H          1.80206       -0.67562       -1.59232
H          0.95669        2.08222        0.70804
H         -0.43355        2.43899       -0.32633
H         -0.94949        1.10379        1.85064
H         -2.61540       -0.32580        0.75089
H         -2.34801        0.93094       -0.47992
H          0.08334       -2.29022       -0.49511
H         -0.11078       -1.25011        1.96156
