19

O	-1.277085	1.902339	0.575369
C	-0.502957	1.102059	-0.320454
C	-1.445676	0.124301	-0.972201
C	-1.488496	-1.172909	-0.670581
C	-0.617642	-1.818916	0.371817
C	0.087199	-0.781396	1.256712
C	0.653376	0.393347	0.427996
C	1.726845	-0.072828	-0.536205
O	2.905035	0.138439	-0.391257
H	-0.737932	2.65646	0.838319
H	-0.075238	1.747626	-1.104973
H	-2.124809	0.540626	-1.710589
H	-2.186634	-1.82083	-1.195888
H	-1.227313	-2.48428	0.995218
H	0.113411	-2.477892	-0.119664
H	-0.636463	-0.353866	1.958382
H	0.882162	-1.248567	1.845517
H	1.135871	1.112576	1.098799
H	1.357448	-0.640029	-1.420529
