19

C	-2.593899	-0.509612	-0.501286
C	-1.077504	-0.466337	-0.600196
C	-0.16126	-1.166143	0.460762
C	-0.485333	-0.000161	1.455942
C	-0.248902	0.687476	0.083576
O	-0.336494	2.048634	-0.113948
C	0.962582	-0.260291	-0.058552
C	2.107199	-0.39404	-0.94461
O	2.250842	-0.09984	0.470438
H	-2.97332	-1.47525	-0.852225
H	-2.970309	-0.355313	0.51216
H	-3.034962	0.266194	-1.136778
H	-0.764848	-0.666232	-1.63282
H	-0.104801	-2.228339	0.683078
H	-1.494967	0.039584	1.86253
H	0.263878	0.198046	2.2239
H	-0.105022	2.243575	-1.028731
H	2.459863	-1.378904	-1.247336
H	2.392405	0.420934	-1.609513
