19

C	2.145077	1.545839	-0.409812
C	1.273153	0.645243	0.467572
C	-0.233382	0.978818	0.496647
C	-0.928235	-0.337238	0.218297
C	-2.425452	-0.43984	0.241203
O	-3.051402	0.583132	-0.523775
C	-0.059569	-1.324097	-0.049884
C	1.331498	-0.829384	0.017088
O	2.342718	-1.443493	-0.238446
H	1.753555	1.595735	-1.431953
H	2.188538	2.565339	-0.015142
H	3.160678	1.144508	-0.459208
H	1.671764	0.661786	1.490179
H	-0.565274	1.402296	1.452361
H	-0.509792	1.716697	-0.265761
H	-2.745983	-1.442383	-0.075764
H	-2.784179	-0.291855	1.267856
H	-2.814489	0.443181	-1.446725
H	-0.30389	-2.348473	-0.304745
