19

O	1.265061	1.745771	-0.379511
C	0.600302	0.827567	0.055251
C	-0.864756	1.028863	0.445873
C	-1.81547	0.215417	-0.408441
C	-3.069595	-0.327818	0.127691
O	-1.941438	-1.175906	-0.09767
C	1.159226	-0.540279	0.241393
C	2.255016	-0.979487	-0.721402
C	2.617037	-0.635337	0.679719
H	-0.999228	0.735435	1.494076
H	-1.091567	2.094098	0.343924
H	-1.769439	0.422888	-1.478351
H	-3.322616	-0.153653	1.172778
H	-3.917455	-0.493445	-0.534917
H	0.471331	-1.295955	0.598473
H	2.250761	-2.01985	-1.024839
H	2.511682	-0.262963	-1.493017
H	2.87063	-1.430971	1.370675
H	3.116367	0.311935	0.848135
