19
../xyz/dsC7O2H10nsd_4373.xyz
C          0.64216        2.16190       -0.05795
C          0.22256        0.77931        0.43021
C          1.37516       -0.23766        0.62400
O          2.38636       -0.13112       -0.36554
C          0.61424       -1.55350        0.49338
O         -0.21642       -1.33160       -0.64737
C         -0.72315        0.01476       -0.55609
C         -2.12140        0.03231       -0.13082
C         -3.26749        0.05941        0.23080
H         -0.23383        2.79126       -0.24378
H          1.26519        2.66530        0.68755
H          1.22445        2.08881       -0.97990
H         -0.29601        0.87348        1.38987
H          1.87265       -0.11216        1.58933
H          2.01586       -0.48475       -1.18351
H          1.26163       -2.40641        0.27682
H          0.01497       -1.76921        1.39069
H         -0.65349        0.43978       -1.56481
H         -4.28347        0.07650        0.53983
