19
../xyz/dsC7O2H10nsd_3833.xyz
C         -2.72273       -0.19414        0.08677
C         -1.39617        0.28933       -0.49484
C         -0.43210       -0.87006       -0.93591
C          0.76405       -0.57470       -0.00691
C          1.91557       -1.52659        0.10959
O          0.08013       -0.23416        1.26039
C         -0.46851        0.93097        0.56148
C          0.90151        0.96352       -0.14231
O          1.74709        1.75210       -0.42899
H         -2.54580       -0.83031        0.95905
H         -3.35220        0.64670        0.39676
H         -3.28203       -0.77786       -0.65190
H         -1.57915        0.98906       -1.31743
H         -0.85407       -1.85684       -0.72297
H         -0.15957       -0.82976       -1.99432
H          2.65208       -1.15969        0.82871
H          1.57219       -2.51540        0.42983
H          2.40621       -1.63412       -0.86260
H         -0.84527        1.71471        1.21638
