19

O	-2.550122	-0.352946	0.107779
C	-1.374728	-0.11072	-0.031775
C	-0.863989	1.228477	-0.564075
C	0.444249	1.712431	0.104537
C	1.370249	0.52853	0.417767
C	0.659696	-0.465551	1.341437
C	-0.281598	-1.121929	0.306183
C	0.704599	-1.30441	-0.864269
O	1.63407	-0.220041	-0.77901
H	-0.667631	1.073104	-1.633299
H	-1.668924	1.962707	-0.491345
H	0.955789	2.420448	-0.554303
H	0.224105	2.243288	1.038771
H	2.330811	0.876126	0.80855
H	1.356497	-1.202682	1.751655
H	0.132859	0.014003	2.170328
H	-0.742685	-2.055029	0.631672
H	1.239231	-2.25888	-0.764492
H	0.217492	-1.290151	-1.846516
