19

O	-2.737511	-0.37161	-0.534965
C	-1.588689	-0.216515	0.264112
C	-1.08856	1.264706	0.265167
C	0.311214	0.707127	0.045672
C	1.633117	0.955099	-0.667506
C	2.174949	-0.516063	-0.467132
C	0.998723	-1.090094	0.387456
O	0.762844	0.031063	1.287203
C	-0.23273	-0.666986	-0.415733
H	-3.003023	-1.296527	-0.502491
H	-1.730158	-0.619209	1.271459
H	-1.47319	1.77544	-0.622378
H	-1.25888	1.871557	1.156357
H	1.506552	1.226911	-1.71835
H	2.261226	1.702584	-0.17796
H	2.325447	-1.04811	-1.410824
H	3.106764	-0.540687	0.101483
H	1.150414	-2.050582	0.885548
H	-0.335956	-0.920646	-1.472968
