19
../xyz/dsC7O2H10nsd_5937.xyz
C         -3.01456        0.30597        0.16624
C         -1.60468        0.50726       -0.35830
O         -0.69349        0.00604        0.63061
C          0.65864        0.09885        0.26093
C          1.54681       -0.89172        0.99838
C          1.19097       -1.15463       -0.43814
O          0.27971       -2.14767       -0.77679
C          1.16376        1.40126       -0.07255
C          1.59705        2.48452       -0.36812
H         -3.74171        0.69602       -0.55204
H         -3.22747       -0.75521        0.32772
H         -3.14922        0.83031        1.11638
H         -1.44998       -0.02627       -1.30601
H         -1.40007        1.57073       -0.53485
H          2.55231       -0.57370        1.24740
H          1.04369       -1.48764        1.75294
H          1.95334       -1.03982       -1.19996
H         -0.47974       -2.03175       -0.19019
H          1.98108        3.44133       -0.62258
