19

C	1.471542	-1.519552	-0.631255
C	0.516987	-0.687974	0.189062
C	1.004453	0.145761	1.357779
C	0.48852	0.812001	0.089813
O	1.443875	1.390274	-0.766303
C	-0.855307	1.449535	0.04076
C	-1.939036	0.712128	-0.181876
C	-1.822987	-0.786383	-0.310649
O	-0.724065	-1.318679	0.412905
H	1.678345	-2.465649	-0.12123
H	1.037419	-1.749099	-1.610335
H	2.409921	-0.987056	-0.794377
H	0.376041	0.16378	2.240594
H	2.075143	0.195764	1.530139
H	1.789134	2.177894	-0.331712
H	-0.905463	2.530521	0.14724
H	-2.926128	1.154728	-0.278333
H	-2.709546	-1.279573	0.100957
H	-1.768378	-1.06716	-1.377564
