19

C	3.069669	-0.172393	0.400136
C	2.032137	0.059046	-0.713334
C	0.649112	0.282703	-0.192233
C	-0.171344	1.332428	-0.306318
C	-1.49205	0.861699	0.287148
O	-2.086471	-0.048303	-0.675795
C	-1.269496	-1.218645	-0.575494
C	-0.213932	-0.781043	0.492409
O	-1.077729	0.006374	1.330072
H	4.062925	-0.341008	-0.026522
H	3.125116	0.693852	1.06581
H	2.815807	-1.045025	1.010316
H	2.331212	0.917957	-1.323909
H	2.033177	-0.811114	-1.385185
H	-0.011613	2.262328	-0.834786
H	-2.239897	1.581997	0.610858
H	-1.871952	-2.057809	-0.212229
H	-0.827358	-1.470911	-1.545122
H	0.271604	-1.577604	1.052663
