19

C	2.320962	-1.241457	0.324332
C	1.274524	-0.712183	-0.666068
C	0.553745	0.521431	-0.149688
O	1.419955	1.638867	-0.063001
C	-0.516174	0.62151	0.933291
C	-1.703024	-0.381377	0.830675
O	-1.495532	-1.306653	-0.24684
C	-1.968996	0.015081	-0.548582
C	-0.805204	1.050407	-0.517728
H	3.108584	-0.506835	0.530651
H	1.857005	-1.517585	1.277202
H	2.81625	-2.130369	-0.076766
H	1.76709	-0.421593	-1.602222
H	0.55578	-1.494826	-0.892815
H	2.094029	1.431751	0.593079
H	-0.373165	1.276619	1.782977
H	-2.358417	-0.693994	1.635007
H	-2.88742	0.097093	-1.11726
H	-0.910122	2.061555	-0.888527
