19
../xyz/dsC7O2H10nsd_2637.xyz
C         -0.62053        1.84597       -0.76551
C         -0.52549        0.85486        0.40715
C          0.92225        0.36627        0.65887
O          1.94278        1.21473        0.20806
C          0.96704       -1.00033       -0.03535
O          1.99590       -1.50284       -0.43817
C         -0.41946       -1.46760       -0.13567
C         -1.26208       -0.44861        0.12269
C         -2.75373       -0.50502        0.11608
H         -1.65550        2.15894       -0.93218
H         -0.01778        2.73125       -0.55463
H         -0.24247        1.39707       -1.68859
H         -0.94704        1.33529        1.29878
H          1.03274        0.16860        1.74004
H          2.61536        0.62491       -0.16596
H         -0.69732       -2.47243       -0.42885
H         -3.15057       -0.20257        1.09351
H         -3.17006        0.19678       -0.61618
H         -3.12470       -1.50620       -0.11464
