19

C	-1.449018	1.89278	0.215865
C	-0.981122	0.540647	-0.34575
C	-1.921245	-0.577677	0.089824
O	-2.148395	-1.565821	-0.557821
C	0.43691	0.219806	0.075619
C	0.853237	-0.502071	1.349503
C	1.277064	-1.034422	0.013881
O	2.433319	-0.339856	-0.45924
C	1.680743	0.900547	-0.503474
H	-0.786728	2.699763	-0.110155
H	-2.461859	2.13415	-0.122052
H	-1.447472	1.882005	1.310999
H	-1.01368	0.55578	-1.44226
H	-2.395518	-0.425533	1.088055
H	1.599083	-0.074021	2.014072
H	0.066637	-1.062748	1.845463
H	1.083218	-2.031457	-0.363462
H	2.15171	1.698185	0.083445
H	1.545803	1.231634	-1.540427
