19

C	2.478052	0.310622	0.319717
C	1.042075	-0.108174	0.138809
C	0.018935	-0.250024	1.322279
C	-1.077589	-0.104741	0.185847
O	-2.391088	0.259857	0.3969
C	-0.845188	-1.390646	-0.623954
C	0.720601	-1.393285	-0.668983
C	-0.033994	0.847183	-0.407966
O	-0.072278	1.973879	-0.81777
H	2.965917	0.4454	-0.651674
H	2.548588	1.259426	0.860293
H	3.045903	-0.442556	0.876428
H	0.02601	-1.203453	1.855974
H	0.034384	0.593753	2.015223
H	-2.430465	1.224165	0.412522
H	-1.258166	-2.261913	-0.108859
H	-1.306075	-1.330313	-1.613008
H	1.150196	-2.275861	-0.185842
H	1.113278	-1.344146	-1.688592
