19

C	2.502074	-0.901113	0.11402
C	1.273191	-0.283327	-0.518874
O	1.167576	1.157741	-0.301495
C	-0.17892	1.037361	0.143641
C	-1.189134	2.005684	-0.374305
C	-0.266185	0.236181	1.38373
C	-0.117603	-0.522084	0.06991
C	-1.163224	-1.400756	-0.450912
O	-2.289051	-1.472182	-0.005784
H	3.406817	-0.434641	-0.287804
H	2.50362	-0.774006	1.199522
H	2.541453	-1.972005	-0.111907
H	1.265019	-0.47073	-1.601646
H	-1.045927	2.987324	0.091573
H	-1.09771	2.124533	-1.457449
H	-2.197534	1.656838	-0.136658
H	0.555641	0.241817	2.092972
H	-1.259693	0.12645	1.805724
H	-0.861075	-2.001736	-1.33936
