19
../xyz/dsC7O2H10nsd_1435.xyz
C          1.69293       -0.82973       -1.00043
C          0.70509       -0.39382        0.07709
O          1.33055       -0.42691        1.35788
C         -0.63615       -1.15103        0.13088
C         -1.49352       -0.22842        1.04541
C         -1.38708        0.76543       -0.16758
C         -1.42383       -0.52239       -1.05783
C          0.10326        1.02738       -0.14746
O          0.72545        2.05617       -0.21212
H          1.22797       -0.92690       -1.98511
H          2.49720       -0.09095       -1.08420
H          2.13333       -1.79189       -0.72330
H          1.95318        0.31024        1.38330
H         -0.58446       -2.22845        0.28358
H         -2.51619       -0.59199        1.16437
H         -1.07115        0.07226        2.00397
H         -2.04972        1.61668       -0.30772
H         -2.43671       -0.92304       -1.13241
H         -0.96561       -0.48459       -2.04899
