19

O	1.881492	-1.263466	0.169553
C	0.673603	-0.570918	0.153169
C	0.033599	0.030482	1.466944
C	-0.544894	1.175915	0.56913
C	-1.829349	0.717226	-0.164495
C	-1.813497	-0.81322	-0.381204
C	-0.393089	-1.364797	-0.631691
C	0.667594	0.880889	-0.318184
O	1.48283	1.536677	-0.908443
H	2.586279	-0.619279	0.026386
H	-0.673717	-0.599564	2.007663
H	0.8053	0.396159	2.147463
H	-0.623673	2.182276	0.981605
H	-2.71232	1.001675	0.417387
H	-1.900379	1.250333	-1.119485
H	-2.225765	-1.295907	0.510245
H	-2.479125	-1.089077	-1.204292
H	-0.326308	-2.413621	-0.323408
H	-0.128671	-1.332154	-1.694453
