19

C	0.202972	8.2e-05	1.698055
C	0.390798	-1.1e-05	0.176301
C	1.791314	-5.6e-05	-0.198823
C	2.946055	-0.000359	-0.540803
C	-0.516861	1.081514	-0.544538
O	-0.980964	2.17385	0.203829
C	-1.581968	7.1e-05	-0.795043
C	-0.516999	-1.081486	-0.544483
O	-0.981243	-2.173775	0.203893
H	0.668061	0.886046	2.137559
H	-0.854757	0.000191	1.966289
H	0.66791	-0.885904	2.137674
H	3.966698	0.000393	-0.833034
H	-0.036714	1.406625	-1.475659
H	-0.275478	2.826749	0.259404
H	-2.317424	0.000104	0.01316
H	-2.099758	9.8e-05	-1.755092
H	-0.036914	-1.406675	-1.475603
H	-0.275832	-2.826753	0.259529
