19
../xyz/dsC7O2H10nsd_5243.xyz
O         -2.81000       -0.48369        0.07105
C         -1.94762        0.58971       -0.28291
C         -0.49465        0.22866       -0.17638
C          0.13632       -0.95167       -0.91194
C          1.53798       -0.79153       -0.28608
C          1.88457        0.67908       -0.61256
C          0.62411        1.26243        0.01651
C          0.28953        0.28881        1.12261
O          1.25355       -0.74537        1.12561
H         -2.55410       -0.77783        0.95184
H         -2.20837        0.84132       -1.31738
H         -2.15218        1.48589        0.32617
H         -0.33326       -1.90362       -0.65343
H          0.14326       -0.83273       -1.99948
H          2.28622       -1.55541       -0.48540
H          2.79918        1.00840       -0.11185
H          1.96882        0.86348       -1.68699
H          0.42680        2.32352        0.09203
H         -0.10623        0.54653        2.09569
