19

C	-2.67187	-0.631906	-0.299478
O	-1.443869	-0.80514	0.389719
C	-0.374364	-0.024687	-0.123121
C	-0.560721	1.39608	0.412082
O	-0.97202	2.317425	-0.242988
C	0.935768	-0.66278	0.377058
C	1.116947	-2.08888	-0.174493
C	2.065574	0.203013	0.045476
C	2.982357	0.922341	-0.249757
H	-2.581385	-0.934924	-1.352313
H	-3.402656	-1.273275	0.197672
H	-3.02258	0.4075	-0.266296
H	-0.394839	0.009187	-1.221723
H	-0.36391	1.494254	1.503956
H	0.850856	-0.724083	1.471299
H	1.232597	-2.068966	-1.262223
H	2.009064	-2.552845	0.252968
H	0.244159	-2.694059	0.07773
H	3.793652	1.559851	-0.50152
