19
../xyz/dsC7O2H10nsd_3574.xyz
C          2.00311       -1.62035        0.08199
C          0.81240       -0.69880        0.34786
C         -0.48488       -1.16598       -0.34047
C         -1.69747       -0.29833       -0.01471
O         -2.82666       -0.72128       -0.06896
C         -1.38023        1.13893        0.38762
C         -0.08843        1.65791       -0.25784
C          1.12224        0.75804       -0.01496
O          2.25120        1.17672       -0.11129
H          2.20028       -1.69925       -0.99223
H          2.90468       -1.22597        0.55391
H          1.80912       -2.62534        0.46758
H          0.62127       -0.68249        1.43384
H         -0.35055       -1.14088       -1.43226
H         -0.72545       -2.20216       -0.08785
H         -2.24329        1.76591        0.15167
H         -1.27866        1.14879        1.48239
H         -0.21727        1.72143       -1.34770
H          0.16312        2.66790        0.07571
