19

C	-2.3767	0.090919	-0.311272
O	-1.661029	-1.035722	0.204663
C	-0.352709	-0.670525	0.516159
O	0.563457	-1.36519	-0.327039
C	1.894157	-0.939089	-0.070567
C	2.100067	0.546863	-0.398024
C	1.103027	1.42941	0.391979
C	-0.251156	0.81328	0.258431
C	-1.409071	1.238551	-0.233262
H	-2.699424	-0.107596	-1.344291
H	-3.282372	0.239899	0.293375
H	-0.130361	-0.958715	1.560853
H	2.157094	-1.128204	0.985794
H	2.540048	-1.567667	-0.689388
H	3.132884	0.835495	-0.172925
H	1.938475	0.693827	-1.471525
H	1.403529	1.445424	1.449592
H	1.118181	2.463944	0.036496
H	-1.643176	2.234432	-0.589645
