19
../xyz/dsC7O2H10nsd_4777.xyz
C         -1.08161        1.89323        0.15799
C         -1.34923        0.42922       -0.20284
C         -2.84531        0.10211       -0.10444
O         -3.15267       -1.23948       -0.45220
C         -0.54438       -0.54890        0.68586
C          0.89373       -0.47415        0.49394
C          2.08447       -0.39404        0.29975
C          3.50882       -0.32700        0.11238
O          4.05717        0.23064       -0.81168
H         -1.63020        2.56994       -0.50479
H         -1.39386        2.10679        1.18718
H         -0.01733        2.12888        0.07417
H         -1.03635        0.26281       -1.24350
H         -3.18491        0.22368        0.93130
H         -3.41615        0.81523       -0.71813
H         -2.98405       -1.34753       -1.39397
H         -0.78014       -0.36135        1.74309
H         -0.88570       -1.56994        0.47685
H          4.09378       -0.84062        0.90299
