19
../xyz/dsC7O2H10nsd_0408.xyz
C         -2.24294        0.05162        0.70418
C         -2.11291       -0.76092       -0.56130
C         -0.92806       -0.00852       -0.03407
C         -0.34071        1.21494       -0.72312
O          0.76872        1.60593        0.09166
C          1.32814        0.44382        0.66573
C          2.15682       -0.46421       -0.26911
O          1.08200       -1.42716       -0.35424
C          0.26722       -0.68436        0.58763
H         -2.80329        0.97983        0.66329
H         -2.32614       -0.47846        1.64757
H         -2.10390       -1.84273       -0.48568
H         -2.58948       -0.38476       -1.46114
H         -0.00373        0.96547       -1.74066
H         -1.02762        2.06354       -0.78363
H          1.77754        0.71386        1.62200
H          2.40992       -0.02503       -1.24107
H          3.05798       -0.89802        0.18227
H          0.03764       -1.27805        1.47803
