19

O	-2.279411	-0.994793	-0.484733
C	-1.106223	-0.399214	0.004283
C	-1.226795	0.482197	1.22529
C	-1.031962	1.085547	-0.159163
C	0.286006	1.704311	-0.588598
C	1.505203	1.012976	0.037253
C	1.482663	-0.514979	0.009836
O	2.491118	-1.157173	0.186344
C	0.147939	-1.212878	-0.252403
H	-2.477328	-1.758734	0.069177
H	-2.217007	0.572764	1.656935
H	-0.417489	0.510233	1.947591
H	-1.919303	1.539557	-0.58881
H	0.355349	1.651058	-1.682931
H	0.3063	2.769763	-0.332396
H	2.439457	1.337457	-0.429434
H	1.593776	1.292338	1.095662
H	0.150672	-1.491719	-1.316344
H	0.150927	-2.154741	0.308676
