19

C	3.055258	-0.067694	-0.50545
C	1.616066	0.376459	-0.352013
O	1.263926	0.544916	1.0605
C	0.330146	-0.531041	0.970493
C	0.555761	-0.714824	-0.518527
C	-0.758711	-0.206965	0.009926
C	-2.111938	-0.904623	-0.094798
O	-2.774489	0.370889	-0.221338
C	-1.520602	1.095876	-0.19861
H	3.294357	-0.225258	-1.563112
H	3.72966	0.697838	-0.11053
H	3.232817	-1.000959	0.036947
H	1.43299	1.305331	-0.907964
H	0.254116	-1.218982	1.80623
H	0.650723	-1.607143	-1.125211
H	-2.255795	-1.531727	-0.985424
H	-2.446049	-1.460194	0.791463
H	-1.334174	1.615616	-1.147955
H	-1.470026	1.815912	0.626138
