19
../xyz/dsC7O2H10nsd_2421.xyz
C          2.51028       -0.29930       -0.51606
C          1.09200        0.00883       -0.11224
C          0.68058        1.48108        0.00313
C         -0.84353        1.41489        0.29067
C         -1.22835       -0.01876       -0.08332
O         -2.51791       -0.30785       -0.52373
C         -0.44554       -1.13462        0.59212
O          0.74626       -0.62725        1.18330
C         -0.09322       -0.71159       -0.80187
H          2.67536       -1.37902       -0.55612
H          2.73056        0.12655       -1.50070
H          3.21093        0.12857        0.20837
H          1.24413        1.98704        0.79222
H          0.88214        1.99653       -0.94289
H         -1.06609        1.63464        1.33991
H         -1.41276        2.11584       -0.32619
H         -3.10057       -0.31891        0.24369
H         -0.88857       -2.04142        0.98983
H         -0.13530       -1.21218       -1.75927
