19
../xyz/dsC7O2H10nsd_5777.xyz
O         -2.93057        0.29917       -0.35359
C         -1.93918       -0.52194        0.24958
C         -0.61512       -0.26906       -0.45939
C         -0.11445        1.19830       -0.29979
C          1.23073        0.97263        0.46256
O          0.89048       -0.13927        1.30426
C          0.55997       -1.03999        0.23880
C          1.77722       -0.92180       -0.67124
C          2.19954        0.33408       -0.52848
H         -3.74749        0.19646        0.14315
H         -1.82051       -0.29088        1.31888
H         -2.20670       -1.58815        0.16366
H         -0.71716       -0.55664       -1.50911
H          0.01932        1.71651       -1.25111
H         -0.81173        1.77851        0.30816
H          1.59226        1.80984        1.05826
H          0.31422       -2.02715        0.63134
H          2.12516       -1.68434       -1.35456
H          2.98111        0.85328       -1.06626
