19

O	-2.299721	-1.065593	0.356638
C	-1.234599	-0.281308	-0.097417
C	-1.519344	1.125477	-0.550026
C	-0.756505	0.87745	0.74321
C	0.756529	0.877454	0.743192
C	1.519343	1.125487	-0.550058
C	1.234603	-0.281301	-0.097437
O	2.299737	-1.065545	0.356666
C	3e-06	-1.021129	-0.631264
H	-2.854454	-1.282176	-0.400588
H	-1.016155	1.542495	-1.415419
H	-2.546179	1.454429	-0.428693
H	-1.265014	1.120194	1.668451
H	1.265053	1.120195	1.668426
H	1.016141	1.542517	-1.415439
H	2.546185	1.454418	-0.42874
H	2.854122	-1.282698	-0.400653
H	-7e-06	-1.129968	-1.722706
H	-1e-06	-2.02308	-0.192265
