19
../xyz/dsC7O2H10nsd_3296.xyz
O         -2.58351       -0.49123       -0.03837
C         -1.48966        0.38440       -0.22188
C         -0.55099        0.37553        1.00911
C          0.47875        1.43297        0.56614
C          0.91425        0.73381       -0.75672
O          2.04607       -0.09449       -0.48454
C          1.58693       -1.08350        0.45304
C          0.06725       -0.95406        0.42177
C         -0.26713       -0.25379       -0.93157
H         -2.96585       -0.67595       -0.90214
H         -1.83091        1.36850       -0.57476
H         -0.95754        0.43073        2.01863
H          0.01807        2.41420        0.41306
H          1.33379        1.55236        1.23506
H          1.16923        1.38511       -1.59242
H          1.93090       -2.06949        0.11868
H          2.01040       -0.89575        1.44982
H         -0.50495       -1.84697        0.65718
H         -0.34000       -0.78912       -1.87908
