19
../xyz/dsC7O2H10nsd_6019.xyz
C          3.34517        0.41624       -0.06369
C          2.14099       -0.39769        0.37502
O          1.05241       -0.08385       -0.48307
C         -0.10468       -0.80326       -0.21517
C         -1.37450       -0.32236       -0.96843
C         -2.17454       -1.07813        0.14738
C         -1.05257       -0.35219        0.96309
C         -1.36620        0.84451        0.04415
O         -1.55350        2.01749        0.09589
H          4.20390        0.19989        0.57858
H          3.61352        0.17811       -1.09672
H          3.12564        1.48566       -0.00380
H          2.35813       -1.47708        0.32162
H          1.87623       -0.16919        1.41887
H          0.06177       -1.88939       -0.24757
H         -1.54948       -0.32249       -2.04135
H         -3.20160       -0.76055        0.32377
H         -2.08426       -2.16629        0.11437
H         -0.87722       -0.39049        2.03560
