19

C	-2.056284	-1.338151	0.003399
C	-0.760819	-0.569016	0.004931
C	0.371298	-0.761398	1.078799
C	1.247865	-0.052615	-0.000693
O	2.628634	-0.204451	-0.079119
C	0.382567	-0.776633	-1.055456
C	0.651789	1.370475	-0.011892
C	-0.835428	0.955162	-0.005529
O	-1.812595	1.654307	-0.007452
H	-2.661219	-1.078998	0.878021
H	-2.649214	-1.096426	-0.884412
H	-1.878953	-2.417659	0.015071
H	0.245908	-0.285796	2.056535
H	0.635675	-1.815199	1.192851
H	3.039675	0.366942	0.578472
H	0.271495	-0.318118	-2.042216
H	0.648754	-1.831923	-1.149257
H	0.903354	1.966268	0.872754
H	0.910285	1.945121	-0.906603
