19
../xyz/dsC7O2H10nsd_1725.xyz
O          1.02537       -0.38480        1.41801
C          0.56163       -0.01923        0.13348
C         -0.27980       -1.15623       -0.49723
C         -1.69970       -1.16551        0.07543
C         -2.41866        0.14524       -0.26214
C         -1.55148        1.33921        0.03241
C         -0.23467        1.26883        0.22355
C          1.76441        0.22763       -0.76884
O          2.89904        0.08798       -0.38176
H          1.99302       -0.42426        1.34463
H         -0.32727       -1.02275       -1.58714
H          0.23673       -2.10020       -0.30112
H         -2.26012       -2.02174       -0.31274
H         -1.63781       -1.28102        1.16325
H         -2.71341        0.15668       -1.32279
H         -3.35551        0.22677        0.30189
H         -2.04781        2.30347        0.11740
H          0.33263        2.15598        0.49345
H          1.53384        0.54197       -1.80679
