19
../xyz/dsC7O2H10nsd_0668.xyz
O          2.44560       -0.00003        0.70132
C          1.45405       -0.00002        0.01048
C          0.76875        1.28190       -0.45325
C         -0.76590        1.12642       -0.39231
C         -1.26941        0.77743        1.02761
C         -1.26949       -0.77742        1.02758
C         -0.76595       -1.12639       -0.39233
C          0.76870       -1.28191       -0.45324
O         -1.14091        0.00003       -1.18643
H          1.13132        2.12030        0.14759
H          1.05135        1.46142       -1.49839
H         -1.25593        2.00474       -0.81830
H         -0.62948        1.20092        1.80560
H         -2.27805        1.16716        1.18041
H         -0.62965       -1.20102        1.80558
H         -2.27818       -1.16705        1.18028
H         -1.25598       -2.00469       -0.81835
H          1.13124       -2.12032        0.14761
H          1.05132       -1.46145       -1.49838
