19

O	-2.660305	-0.084374	0.153889
C	-1.259591	-0.006129	0.398436
C	-0.635063	-1.286884	-0.183899
C	0.890128	-1.119592	-0.367609
O	1.08891	-0.006471	-1.244211
C	0.887121	1.119959	-0.387896
C	-0.641381	1.275479	-0.209423
C	1.560655	0.677818	0.906103
C	1.563414	-0.651908	0.917226
H	-3.079119	0.666055	0.587905
H	-1.07607	0.00361	1.481593
H	-0.876391	-2.142441	0.456064
H	-1.076247	-1.473459	-1.168202
H	1.338699	-2.005769	-0.824454
H	1.330829	2.000811	-0.859992
H	-0.884094	2.145636	0.414473
H	-1.080637	1.439087	-1.198911
H	1.889129	1.351589	1.686713
H	1.893367	-1.310821	1.709759
