19
../xyz/dsC7O2H10nsd_5779.xyz
C          3.04754       -0.53961        0.21119
C          1.92053        0.40466       -0.21474
C          0.53757       -0.03223        0.27523
C         -0.03602       -1.32160       -0.36779
C         -1.53785       -1.09633       -0.42485
O         -2.08120       -0.66621        0.81896
C         -1.85181        0.32841       -0.20039
C         -0.53963        1.03826        0.01078
O         -0.35668        2.22536       -0.08392
H          3.10592       -0.61779        1.30259
H          2.90292       -1.55048       -0.18520
H          4.01608       -0.17985       -0.14902
H          2.10794        1.41466        0.16420
H          1.90103        0.49224       -1.30888
H          0.57108       -0.16381        1.36501
H          0.35010       -1.44484       -1.38722
H          0.21278       -2.22864        0.19033
H         -2.18356       -1.73266       -1.02474
H         -2.72323        0.84863       -0.58394
