19

O	-2.347034	0.001348	-0.455776
C	-0.992817	0.139496	-0.177602
C	-0.341562	1.483841	-0.492238
C	0.732787	1.118754	0.58022
C	1.895947	0.353389	-0.068434
C	1.299598	-0.728703	-1.005324
C	-0.053707	-1.110438	-0.417702
O	0.117493	-1.289454	1.024298
C	-0.290496	0.075138	1.199897
H	-2.644776	-0.850855	-0.117501
H	-0.002558	1.687461	-1.512081
H	-0.997736	2.294462	-0.163745
H	1.065475	1.922846	1.237283
H	2.55101	1.037053	-0.617378
H	2.496809	-0.124068	0.710198
H	1.16725	-0.355074	-2.02705
H	1.953427	-1.604252	-1.064366
H	-0.526205	-1.981073	-0.884368
H	-0.724862	0.289491	2.177932
