19
../xyz/dsC7O2H10nsd_1827.xyz
O          0.43012        1.92230       -0.34821
C         -0.24672        0.73563       -0.12599
C         -1.70797        0.57243       -0.61173
C         -1.69833       -0.60596        0.40771
C         -0.76995        0.27944        1.28040
C         -0.69845       -1.59551       -0.23235
C          0.40246       -0.56882       -0.65947
C          1.78315       -0.82632       -0.11812
O          2.48015        0.02065        0.39445
H          1.33189        1.78008       -0.02638
H         -2.33795        1.40332       -0.28844
H         -1.88001        0.35002       -1.66939
H         -2.62290       -1.02678        0.79900
H         -1.30305        1.08837        1.78293
H         -0.07629       -0.20905        1.97075
H         -0.33034       -2.33521        0.48716
H         -1.12003       -2.13514       -1.08411
H          0.50998       -0.53693       -1.75334
H          2.16139       -1.86762       -0.23087
