19

O	3.443336	-0.298467	0.06852
C	2.131234	0.098592	0.431643
C	1.082987	-0.327798	-0.604424
C	-0.301652	0.099117	-0.229594
O	-0.580095	1.535004	-0.091277
C	-1.847687	0.883441	0.206168
C	-1.691016	-0.225647	-0.877744
C	-1.980256	-1.351605	0.137978
C	-1.216157	-0.309553	0.982473
H	3.703332	0.215202	-0.702718
H	1.925956	-0.391821	1.38899
H	2.062429	1.182225	0.599842
H	1.330573	0.112335	-1.579923
H	1.109818	-1.416978	-0.725574
H	-2.709223	1.50201	0.455248
H	-1.947372	-0.145834	-1.934452
H	-3.029586	-1.514466	0.398265
H	-1.479282	-2.308406	-0.03287
H	-0.937289	-0.325844	2.036252
