19
../xyz/dsC7O2H10nsd_1126.xyz
C         -2.51648       -0.58803        0.24873
C         -1.47036        0.46048       -0.04778
O         -1.61457        1.63854        0.19012
C         -0.17498       -0.00262       -0.70397
O          0.06620       -1.43458       -0.71732
C          1.35596       -1.22605       -0.12322
C          1.21482       -0.63473        1.24469
C          1.14932        0.26561        0.02218
C          2.01670        1.46610       -0.20373
H         -2.77436       -1.12898       -0.66900
H         -2.11205       -1.34003        0.93350
H         -3.40377       -0.11820        0.67465
H         -0.15566        0.38906       -1.73114
H          2.18005       -1.83020       -0.48424
H          0.34021       -0.85996        1.84861
H          2.13971       -0.53718        1.80571
H          2.15828        1.66122       -1.27263
H          1.56064        2.35687        0.24171
H          3.00404        1.33119        0.24889
