19
../xyz/dsC7O2H10nsd_5416.xyz
C          3.37674        0.06683       -0.05765
O          2.24241       -0.74864       -0.28658
C          1.09437       -0.25502        0.31940
C          0.26783        0.79196       -0.37983
O         -0.34243        1.76091        0.41915
C         -0.21758       -0.64463       -0.29892
C         -1.41732       -0.96822        0.58198
C         -2.66116       -0.43056        0.03150
C         -3.65800        0.04890       -0.44127
H          3.61753        0.13107        1.01401
H          4.21552       -0.39596       -0.58248
H          3.22732        1.08637       -0.43979
H          1.13347       -0.17826        1.40851
H          0.63069        1.13173       -1.34972
H         -1.26290        1.83373        0.13758
H         -0.14849       -1.21062       -1.22242
H         -1.50490       -2.05358        0.71137
H         -1.26480       -0.54723        1.58157
H         -4.55257        0.44900       -0.85042
