19

O	-2.326268	0.400209	0.454043
C	-1.306606	-0.055952	-0.415706
C	-0.900113	-1.544573	-0.234286
C	0.585699	-1.377283	0.076015
C	1.176364	-0.264995	-0.8478
C	2.142749	0.132217	0.295751
C	0.791519	-0.138432	1.002512
C	0.05205	0.607028	-0.181035
O	0.000665	1.988782	-0.287072
H	-1.955939	0.4654	1.340832
H	-1.675885	0.157971	-1.423077
H	-1.464373	-1.995939	0.587633
H	-1.074359	-2.146551	-1.131446
H	1.197237	-2.260308	0.264224
H	1.393619	-0.347892	-1.91462
H	2.955061	-0.566899	0.512814
H	2.52747	1.158373	0.305857
H	0.574669	-0.07647	2.071968
H	0.877355	2.35234	-0.122656
