19

C	-2.55374	-1.496176	-0.289798
C	-2.324852	-0.087174	0.269226
C	-1.200118	0.649854	-0.429293
C	-0.518457	1.855561	0.216127
C	0.203877	0.564693	0.058065
C	0.88978	-0.343442	1.067761
C	1.991331	-0.389228	0.003068
O	3.055295	-0.894034	-0.150213
O	1.319524	0.438057	-0.866085
H	-3.375333	-1.99881	0.229321
H	-2.804161	-1.460455	-1.355367
H	-1.658783	-2.118407	-0.18471
H	-3.247359	0.499984	0.177723
H	-2.109256	-0.143434	1.344148
H	-1.293905	0.711086	-1.511494
H	-0.225825	2.676562	-0.429018
H	-0.825775	2.14742	1.216127
H	1.197877	0.116944	2.00835
H	0.417033	-1.307606	1.264367
