19
../xyz/dsC7O2H10nsd_4879.xyz
C         -1.30903       -0.45215        1.58595
C         -0.53506       -0.23788        0.29260
C         -0.76736        1.15521       -0.30285
O         -2.11115        1.33935       -0.72511
C         -0.63343       -1.33922       -0.78729
O          0.80582       -1.45318       -0.86804
C          0.97695       -0.64603        0.32042
C          2.00617        0.37268        0.20382
C          2.86187        1.21405        0.12940
H         -1.01282        0.27676        2.34948
H         -2.38717       -0.34992        1.41921
H         -1.13806       -1.45363        1.99252
H         -0.45838        1.92898        0.41505
H         -0.15026        1.27754       -1.19738
H         -2.65652        1.47819        0.05449
H         -1.09478       -2.27469       -0.44330
H         -1.08088       -1.04318       -1.74083
H          1.20159       -1.28452        1.18832
H          3.61933        1.95509        0.05538
