19
../xyz/dsC7O2H10nsd_5805.xyz
C          2.91741       -0.78721        0.26634
C          2.12022        0.40185       -0.27559
C          0.68467        0.45318        0.23480
C         -0.08903        1.68931       -0.21982
C         -1.54427        1.53217        0.11390
C         -2.07943        0.31764        0.25281
C         -1.30013       -0.91036       -0.02633
O         -1.79980       -1.99845       -0.15381
O          0.03845       -0.75884       -0.21321
H          3.93299       -0.79176       -0.13964
H          2.99450       -0.74659        1.35851
H          2.43520       -1.72996       -0.00204
H          2.60884        1.34399        0.00261
H          2.09348        0.37048       -1.37163
H          0.68577        0.43307        1.33511
H          0.32778        2.57580        0.27104
H          0.03525        1.84685       -1.30131
H         -2.15467        2.42446        0.22451
H         -3.12510        0.15244        0.48230
