19

C	2.96821	-0.19996	0.268164
C	1.630798	0.166946	-0.346445
O	0.862042	-1.002198	-0.722578
C	-0.151556	-0.732211	0.269297
C	0.509969	0.622584	0.63384
C	-0.452397	1.63757	0.087987
C	-1.51975	1.076321	-0.487047
C	-1.533532	-0.428189	-0.34663
O	-2.628289	-0.891948	0.439133
H	2.834458	-0.832626	1.151396
H	3.5793	-0.748103	-0.455424
H	3.514401	0.702407	0.565264
H	1.77236	0.829832	-1.209641
H	-0.214402	-1.522544	1.024723
H	0.840796	0.810078	1.658387
H	-0.257908	2.704582	0.130298
H	-2.32989	1.611225	-0.970606
H	-1.620116	-0.950161	-1.305587
H	-2.699476	-0.309875	1.203744
