19

C	3.826168	0.127107	0.090728
C	2.363777	0.136472	-0.331181
O	1.869592	1.444156	-0.103844
C	1.535975	-0.909908	0.454391
C	0.121007	-0.855364	0.10352
C	-1.03398	-0.767601	-0.231383
C	-2.445848	-0.657137	-0.570903
C	-3.223719	0.190175	0.439658
O	-4.095932	0.955768	0.133548
H	4.382393	0.880485	-0.47258
H	3.916678	0.362682	1.15592
H	4.279921	-0.851284	-0.093406
H	2.292986	-0.118194	-1.401528
H	0.925751	1.433	-0.303218
H	1.934918	-1.913527	0.260874
H	1.658705	-0.715638	1.527525
H	-2.60698	-0.233509	-1.567544
H	-2.911614	-1.65489	-0.57005
H	-2.922311	0.029026	1.497404
