19

C	-2.750371	-0.708212	0.005001
O	-1.991255	0.481897	0.000759
C	-0.616123	0.319338	0.00253
C	0.199949	-0.496484	-1.074237
C	1.315908	-0.286565	-0.007017
O	2.45607	-1.078558	-0.083086
C	0.196942	-0.488999	1.082871
C	1.433503	1.250749	-0.009561
C	0.158902	1.641499	-0.002001
H	-2.557829	-1.314781	0.900988
H	-3.801442	-0.411133	0.000545
H	-2.553164	-1.324421	-0.883275
H	-0.098307	-1.545394	-1.162083
H	0.345456	-0.035859	-2.052804
H	3.020264	-0.870516	0.669285
H	-0.101655	-1.537247	1.178471
H	0.339853	-0.01799	2.057971
H	2.351867	1.821142	-0.03023
H	-0.295815	2.621536	-0.005772
