19

C	-2.829746	-0.94075	0.167371
C	-1.520109	-0.230389	0.427524
C	-1.025691	0.799685	-0.550047
O	-0.175128	1.820691	-0.089839
C	0.945614	1.226117	0.563123
C	1.033781	-0.212124	0.051176
C	2.035489	-1.176818	0.508006
O	2.145857	-0.558906	-0.780863
C	-0.330206	-0.535336	-0.479575
H	-2.83438	-1.944292	0.60668
H	-3.671198	-0.382536	0.591353
H	-3.012038	-1.051159	-0.907031
H	-1.298705	-0.047638	1.476255
H	-1.640409	1.121827	-1.382698
H	1.846156	1.794026	0.31402
H	0.807013	1.246444	1.653719
H	2.790618	-0.877523	1.235347
H	1.802413	-2.240945	0.500584
H	-0.410098	-1.294796	-1.248081
