19
../xyz/dsC7O2H10nsd_2744.xyz
O          0.00000        2.04581       -0.10778
C          0.00000        0.74137       -0.62014
C          1.01730       -0.26549       -0.07566
C          2.20308        0.01484        0.79019
C          2.36048       -0.67840       -0.55904
O         -0.00000       -1.20672        0.28724
C         -1.01730       -0.26549       -0.07566
C         -2.36048       -0.67840       -0.55904
C         -2.20308        0.01484        0.79019
H          0.00002        1.97903        0.85432
H         -0.00000        0.84076       -1.70854
H          2.53299        1.04483        0.88377
H          2.32436       -0.59355        1.67981
H          2.80879       -0.12716       -1.37946
H          2.58247       -1.74015       -0.54733
H         -2.80879       -0.12716       -1.37946
H         -2.58247       -1.74015       -0.54733
H         -2.53299        1.04483        0.88377
H         -2.32436       -0.59354        1.67981
