19

C	0.661097	1.656394	1.104454
C	0.260026	1.271313	-0.320564
O	-1.170379	1.210802	-0.429146
C	-1.811344	-0.054509	-0.496183
C	-1.442858	-1.02997	0.605453
C	-0.251427	-1.623106	0.648211
C	0.786609	-1.334193	-0.376638
O	1.941667	-0.590897	0.030525
C	1.012424	0.043697	-0.855947
H	0.429722	0.864553	1.817935
H	1.733483	1.863609	1.159579
H	0.110527	2.557401	1.388177
H	0.532506	2.10603	-0.978906
H	-2.878519	0.178805	-0.451592
H	-1.62685	-0.52705	-1.472624
H	-2.186459	-1.237874	1.370309
H	0.002388	-2.337092	1.428112
H	1.031714	-2.156396	-1.053252
H	1.394029	0.15102	-1.871483
