19

O	-2.884357	0.125831	0.653717
C	-2.181937	-0.225162	-0.259597
C	-1.104146	-1.28424	-0.150716
C	0.280117	-0.703758	-0.4418
C	1.534771	-1.599437	-0.246436
C	2.28342	-0.381008	0.359609
C	0.889473	0.306591	0.562495
C	0.794008	1.770437	0.242056
O	0.197012	2.219501	-0.705826
H	-2.275464	0.237625	-1.267548
H	-1.148898	-1.722919	0.851438
H	-1.323576	-2.073214	-0.884353
H	0.287958	-0.245987	-1.436473
H	1.36111	-2.376884	0.503817
H	1.965221	-2.063096	-1.136671
H	2.890076	-0.549295	1.250738
H	2.888268	0.143333	-0.385358
H	0.535297	0.144493	1.588208
H	1.344526	2.44274	0.939411
