19

C	2.30324	-1.329981	0.585297
C	1.315385	-0.523439	-0.244359
C	1.653555	0.981836	-0.500211
C	0.251263	1.344157	-0.009724
O	-0.419024	2.334961	-0.01561
C	-0.02393	-0.119289	0.434482
C	-1.323978	-0.716568	-0.084425
C	-2.582582	-0.157844	0.541569
O	-1.330211	-1.544185	-0.96608
H	1.909601	-2.327719	0.804661
H	3.252944	-1.455842	0.05502
H	2.518747	-0.835478	1.540126
H	1.089839	-1.04085	-1.179837
H	2.426342	1.380461	0.167497
H	1.889246	1.290537	-1.522315
H	-0.005019	-0.176214	1.530483
H	-3.463703	-0.562947	0.042803
H	-2.615544	-0.407404	1.608497
H	-2.566292	0.936017	0.470802
