19

C	0.767566	2.447052	0.419185
C	0.658645	1.160879	-0.367898
O	-0.701227	0.844551	-0.755418
C	-0.573912	-0.517245	-0.280924
C	-1.752629	-0.881154	0.601568
O	-2.964735	-0.747533	-0.112434
C	0.7896	-0.195493	0.390745
C	1.92695	-1.042757	0.11197
C	2.871262	-1.74341	-0.139447
H	1.806189	2.619147	0.721046
H	0.445059	3.294885	-0.19334
H	0.140746	2.412213	1.315456
H	1.307487	1.188888	-1.252955
H	-0.490498	-1.216774	-1.121747
H	-1.677559	-1.926079	0.922869
H	-1.741356	-0.245801	1.502731
H	-2.96355	0.145741	-0.477635
H	0.671068	-0.051295	1.470583
H	3.705218	-2.364314	-0.355378
