19
../xyz/dsC7O2H10nsd_4484.xyz
O          2.11286       -0.56783       -0.74978
C          1.20986       -0.61641        0.34805
C          1.01892        0.76811        0.97489
O          0.27486        1.64845        0.13706
C         -0.83619        1.09748       -0.52010
C         -1.87173        0.13022       -0.00106
C         -1.32804       -0.97774        0.90392
C         -0.14102       -1.19587       -0.08822
C         -0.85071       -0.26880       -1.10564
H          1.80227        0.13276       -1.33514
H          1.68164       -1.26811        1.09257
H          0.54026        0.68310        1.96016
H          1.99518        1.24076        1.11299
H         -1.26859        1.87501       -1.14264
H         -2.92529        0.36270       -0.11363
H         -1.10682       -0.73789        1.94801
H         -1.99613       -1.84285        0.88793
H         -0.02145       -2.22596       -0.42439
H         -1.00941       -0.48653       -2.15512
