19

C	0.86347	2.158403	0.078035
C	0.799911	0.641501	0.178748
C	-0.500377	0.016623	-0.334316
C	-1.728079	0.38109	0.526448
C	-2.941156	-0.287353	0.072202
C	-3.9288	-0.846825	-0.322373
O	1.900079	0.143013	-0.635754
C	2.454036	-1.018346	-0.266241
O	2.134405	-1.699316	0.670377
H	0.69264	2.48787	-0.951603
H	0.108869	2.621027	0.719751
H	1.844694	2.519541	0.396711
H	0.98006	0.312416	1.206761
H	-0.669845	0.328275	-1.370739
H	-0.385156	-1.070583	-0.334182
H	-1.532829	0.110442	1.572707
H	-1.891215	1.465528	0.515939
H	-4.806885	-1.338884	-0.660116
H	3.269757	-1.255777	-0.967229
