19
../xyz/dsC7O2H10nsd_4326.xyz
O         -1.58798       -1.68439       -0.65023
C         -0.90641       -0.84034        0.26577
C         -1.87127        0.18072        0.92102
C         -1.68210        1.41695        0.07248
C         -0.59342        1.33218       -0.69391
C          0.15806        0.03597       -0.46227
C          1.40548        0.26411        0.36917
C          2.74114        0.37431       -0.23005
O          2.33516       -0.81880        0.44288
H         -2.00554       -1.11717       -1.30893
H         -0.44653       -1.51805        0.98829
H         -2.89446       -0.21006        0.91866
H         -1.61284        0.37866        1.97014
H         -2.35430        2.26730        0.11074
H         -0.23704        2.10374       -1.36749
H          0.45772       -0.47054       -1.38682
H          1.23800        0.76946        1.32269
H          2.85157        0.28524       -1.31048
H          3.51703        0.95355        0.26874
