19

C	1.945242	-1.185462	-0.586928
C	1.199501	-0.530371	0.585793
C	-0.180226	-1.191771	0.838159
C	-1.308636	-0.593126	0.013695
O	-2.018097	-1.245752	-0.712115
C	-1.515446	0.904675	0.226603
C	-0.208735	1.66393	0.202746
O	0.623237	1.392755	-0.927713
C	1.083732	0.973007	0.364877
H	2.100737	-2.251573	-0.396669
H	1.375934	-1.076353	-1.513566
H	2.924545	-0.720303	-0.738442
H	1.800019	-0.6707	1.49249
H	-0.142311	-2.267295	0.651125
H	-0.452602	-1.041562	1.89199
H	-2.199971	1.280841	-0.538849
H	-1.998961	1.046204	1.203749
H	-0.270094	2.719949	0.469267
H	1.928998	1.559475	0.727862
