19

C	3.506988	-0.652309	-0.032167
O	2.252339	-0.182431	-0.466993
C	1.188467	-0.647043	0.322536
C	-0.115412	-0.023276	-0.201139
C	-1.334512	-0.660466	0.512579
C	-2.664447	-0.197602	-0.04683
O	-3.570033	-0.939716	-0.328916
C	-0.103959	1.430804	-0.049775
C	-0.113639	2.622071	0.10975
H	3.564606	-1.751933	-0.062128
H	4.259932	-0.240575	-0.707869
H	3.73128	-0.324011	0.994688
H	1.111484	-1.746405	0.267943
H	1.331979	-0.375087	1.381753
H	-0.169358	-0.265104	-1.270972
H	-1.297847	-1.751277	0.445001
H	-1.305635	-0.380677	1.574935
H	-2.755914	0.902093	-0.177415
H	-0.109886	3.677086	0.231612
