19

C	2.021156	-0.671584	0.550916
C	1.529594	0.021462	-0.693587
C	0.853996	1.372262	-0.57612
O	0.052414	1.4875	0.593258
C	-0.936914	0.502149	0.755453
C	-2.018322	0.308395	-0.333684
O	-1.640081	-1.069447	-0.519739
C	-0.563452	-0.975135	0.450258
C	0.791885	-1.183373	-0.16719
H	2.927498	-1.263284	0.490252
H	1.878381	-0.157775	1.495687
H	2.109483	-0.104007	-1.603241
H	1.593926	2.17498	-0.492197
H	0.255536	1.569648	-1.478928
H	-1.342556	0.666612	1.754865
H	-3.054878	0.41074	0.009226
H	-1.886969	0.907795	-1.242932
H	-0.734112	-1.677088	1.276586
H	0.887371	-2.1171	-0.713751
