19
../xyz/dsC7O2H10nsd_2386.xyz
C         -2.01320       -1.23995        0.51481
C         -0.82425       -0.44769        0.00854
C          0.45061       -1.25025       -0.23785
C          1.60487       -0.27002       -0.00350
O          2.71874       -0.36731       -0.44406
C          1.10097        0.85593        0.91438
C         -0.42081        0.86757        0.76684
C         -0.96139        1.57815       -0.48748
O         -1.16840        0.32808       -1.17591
H         -1.77300       -1.74841        1.45481
H         -2.87120       -0.58281        0.68500
H         -2.30722       -1.99770       -0.21886
H          0.55363       -2.07199        0.48363
H          0.49014       -1.67741       -1.24212
H          1.39940        0.59734        1.93876
H          1.59074        1.80160        0.66803
H         -0.95154        1.07844        1.69578
H         -1.90161        2.12532       -0.34246
H         -0.25286        2.22702       -1.01729
