19
../xyz/dsC7O2H10nsd_1110.xyz
C         -3.18475       -0.64135       -0.21015
C         -1.97849        0.26593       -0.06144
O         -1.98013        1.41024       -0.45703
C         -0.74529       -0.34994        0.57393
C          0.39339        0.60149        1.00740
C          1.43566       -0.36891        0.36964
C          0.26127       -1.01731       -0.42537
C          2.53721        0.25609       -0.43978
O          3.71362        0.04306       -0.29564
H         -3.59558       -0.87092        0.78039
H         -3.95043       -0.15517       -0.81560
H         -2.89862       -1.59782       -0.66197
H         -1.02905       -1.05853        1.35746
H          0.31566        1.54335        0.45696
H          0.50581        0.81306        2.07172
H          1.87130       -1.05561        1.09825
H          0.16979       -0.58356       -1.42656
H          0.25697       -2.10550       -0.50547
H          2.17231        0.96829       -1.21920
