19

C	-2.027121	-1.646701	0.182554
C	-1.075483	-0.528898	-0.128817
C	0.225298	-0.655833	-0.350395
C	1.370531	-1.582378	-0.024736
O	2.201251	-0.413721	0.247431
C	1.215902	0.469017	-0.358576
C	0.630666	1.630571	0.43527
O	-0.623955	1.909441	-0.183704
C	-1.606835	0.889665	-0.063684
H	-2.52022	-1.491368	1.150401
H	-2.824278	-1.713593	-0.568895
H	-1.515282	-2.612108	0.210617
H	1.258954	-2.232037	0.85147
H	1.776877	-2.170128	-0.859774
H	1.560491	0.81218	-1.343502
H	0.521444	1.344743	1.49195
H	1.207942	2.556349	0.371315
H	-2.336226	1.089518	-0.858751
H	-2.145812	0.998019	0.895655
