19
../xyz/dsC7O2H10nsd_6073.xyz
C         -3.77967       -0.51411       -0.04716
O         -2.41777       -0.82573        0.12271
C         -1.57780        0.29590       -0.04038
C         -0.14353       -0.16853        0.16106
C          0.86652        0.94548        0.00166
O          0.56163        2.06577       -0.33155
C          2.34007        0.62588        0.33520
C          2.78781       -0.71986        0.01252
C          3.15216       -1.83129       -0.26363
H         -3.98692       -0.12198       -1.05553
H         -4.34730       -1.43671        0.09653
H         -4.12301        0.23292        0.68621
H         -1.69765        0.73745       -1.04178
H         -1.83097        1.08562        0.68499
H         -0.02112       -0.62648        1.15129
H          0.10410       -0.96615       -0.54983
H          2.95065        1.38348       -0.16559
H          2.45117        0.80342        1.41535
H          3.47675       -2.81283       -0.50657
