19
../xyz/dsC7O2H10nsd_1924.xyz
O         -2.59847       -0.82540       -0.82347
C         -1.68091       -0.20025        0.00160
C         -1.87234        1.19611        0.51817
C         -0.68713        0.89022       -0.37350
C          0.41027        0.19749        0.45163
C         -0.60937       -0.94298        0.80798
C          1.58799       -0.28292       -0.34916
C          2.91460       -0.47791        0.24831
O          2.64227        0.65773       -0.57487
H         -3.41671       -0.94934       -0.33018
H         -2.66852        1.74505        0.02493
H         -1.72969        1.44339        1.56876
H         -0.53609        1.40329       -1.31523
H          0.77033        0.78455        1.30352
H         -0.33410       -1.88886        0.33322
H         -0.81207       -1.12206        1.86909
H          1.33538       -0.87949       -1.22879
H          3.06252       -0.26272        1.30619
H          3.59989       -1.21116       -0.17495
