19

C	-2.200708	-0.000743	0.971929
C	-0.684417	0.006642	0.929173
C	-0.058936	0.753018	-0.242993
O	-0.770794	1.608694	-1.063006
C	1.502595	0.759293	-0.22857
C	2.135951	0.034592	0.930801
C	1.50836	-0.758834	-0.187187
C	-0.052971	-0.764898	-0.205396
O	-0.779022	-1.733103	-0.869833
H	-2.629569	0.004197	-0.031347
H	-2.565514	-0.892777	1.490104
H	-2.576592	0.87659	1.510172
H	-0.225228	0.022572	1.914419
H	-0.994215	2.401447	-0.560899
H	2.061103	1.402737	-0.897234
H	3.223087	0.03615	0.918705
H	1.724729	0.06032	1.933297
H	2.0813	-1.437958	-0.807555
H	-0.599812	-1.652426	-1.81349
