19

C	1.119738	1.725785	-0.026525
C	0.537979	0.326476	0.165582
C	1.617724	-0.688099	0.542546
O	2.580546	-0.886896	-0.485521
C	-0.787481	0.223887	0.970344
C	-1.646329	0.687763	-0.250678
O	-2.582121	-0.425254	-0.174991
C	-1.284407	-1.006792	0.144435
C	-0.493308	-0.148081	-0.893594
H	1.620977	2.073884	0.884817
H	1.854536	1.73911	-0.839699
H	0.348938	2.459077	-0.280135
H	2.101411	-0.38319	1.485075
H	1.170852	-1.67234	0.715824
H	3.142779	-0.107834	-0.52369
H	-0.987537	0.428853	2.023065
H	-2.032766	1.673348	-0.505996
H	-1.236611	-2.072074	0.363996
H	-0.353477	-0.367256	-1.951819
