19

O	1.110857	0.069233	1.71078
C	0.970491	-0.490064	0.415389
C	2.223935	-0.444371	-0.348888
C	3.248795	-0.409856	-0.97549
C	-0.177015	0.220391	-0.340436
O	0.161176	1.606757	-0.302645
C	-1.515684	-0.041481	0.306211
C	-2.78226	0.259801	-0.463829
C	-2.386244	-1.168095	-0.183977
H	1.159009	1.024087	1.564598
H	0.682244	-1.536866	0.564011
H	4.157698	-0.378324	-1.523807
H	-0.192748	-0.139841	-1.380717
H	-0.651162	2.105707	-0.434411
H	-1.526882	0.158852	1.372929
H	-3.624639	0.67877	0.074882
H	-2.688015	0.612743	-1.486586
H	-2.955356	-1.728566	0.548631
H	-2.028528	-1.762429	-1.018486
