19
../xyz/dsC7O2H10nsd_5260.xyz
C          2.69529       -0.38571        0.25369
C          1.75519        0.75084       -0.15596
C          0.29728        0.36798       -0.11052
O          0.02464       -0.74232       -1.02224
C         -1.14506       -1.36050       -0.48744
C         -1.47238       -0.42563        0.72327
O         -0.12596       -0.14764        1.13866
C         -1.90230        0.90184        0.11488
C         -0.78690        1.40633       -0.41313
H          3.73859       -0.06467        0.18657
H          2.49728       -0.70046        1.28142
H          2.55544       -1.25127       -0.39790
H          1.89019        1.62141        0.49557
H          1.97440        1.08155       -1.17752
H         -1.94408       -1.39631       -1.23526
H         -0.90778       -2.37388       -0.14590
H         -2.06235       -0.85663        1.52933
H         -2.92141        1.25112        0.02313
H         -0.65644        2.27791       -1.03949
