19
../xyz/dsC7O2H10nsd_5333.xyz
O         -2.89462       -0.34053       -0.71527
C         -2.18488       -0.30150        0.52150
C         -0.70994       -0.12679        0.31592
C          0.27109       -0.91224        0.78238
C          1.64115       -0.46303        0.31801
O          2.28237       -1.42810       -0.51301
C          1.34973        0.85222       -0.41299
C          0.71051        1.96871        0.36483
C         -0.15703        1.02915       -0.45476
H         -2.55799       -1.09311       -1.21304
H         -2.59943        0.55991        1.05835
H         -2.38212       -1.19669        1.12921
H          0.13516       -1.78165        1.41682
H          2.33774       -0.31803        1.15191
H          1.64586       -1.67843       -1.19220
H          1.98248        1.09608       -1.25841
H          0.65518        1.89197        1.44654
H          0.85455        2.97699       -0.01061
H         -0.69723        1.41285       -1.31169
