19
../xyz/dsC7O2H10nsd_4564.xyz
O         -2.28596       -1.20659        0.69621
C         -1.57219       -0.66195       -0.41895
C         -1.73775        0.86028       -0.54582
C         -0.77646        1.61276        0.38233
C          0.67918        1.27850        0.03542
C          0.88446       -0.20693       -0.12243
C          2.26020       -0.73845       -0.03256
O          3.24287       -0.05997        0.16263
C         -0.12334       -1.06746       -0.33655
H         -1.83269       -0.92587        1.49876
H         -2.03280       -1.14750       -1.28720
H         -1.53805        1.15136       -1.58553
H         -2.78123        1.11027       -0.33270
H         -0.94424        2.69199        0.31762
H         -0.97720        1.33305        1.42585
H          0.96963        1.77959       -0.89879
H          1.37497        1.65473        0.79179
H          2.33675       -1.84191       -0.16009
H          0.08496       -2.13373       -0.40902
