19

C	2.563994	-0.689911	0.123904
C	1.116173	-0.553457	0.55237
O	0.266919	-1.482147	-0.182286
C	-0.46215	-0.413611	-0.823452
C	-1.744996	-0.11775	-0.018689
O	-2.882135	-0.476096	-0.098426
C	-0.995294	0.874959	0.895445
C	0.29436	0.659023	0.040413
C	0.976538	1.894978	-0.501497
H	2.920011	-1.698197	0.356166
H	2.679617	-0.529882	-0.951811
H	3.197174	0.027487	0.657064
H	1.028287	-0.723014	1.63415
H	-0.491809	-0.498157	-1.913548
H	-1.416009	1.883438	0.819697
H	-0.9374	0.603878	1.953835
H	1.429333	2.480174	0.307375
H	1.764826	1.649895	-1.218618
H	0.255949	2.544936	-1.009585
