19

C	-3.623026	-0.294173	-0.107616
C	-2.174648	-0.216309	0.006468
C	-0.975375	-0.142514	0.088386
C	0.469751	-0.065302	0.220261
C	0.945679	1.317304	0.690527
O	0.719953	2.285683	-0.304723
C	1.176982	-1.269534	0.904683
C	1.924265	-1.424264	-0.431926
O	1.159989	-0.359354	-1.043141
H	-3.933399	-0.279528	-1.15819
H	-4.011427	-1.215317	0.340537
H	-4.106837	0.551724	0.392682
H	0.397519	1.625545	1.586487
H	2.015178	1.241743	0.949645
H	1.07323	1.905911	-1.12005
H	1.783574	-1.013103	1.775278
H	0.506169	-2.09087	1.15282
H	2.995842	-1.193803	-0.40368
H	1.778847	-2.374184	-0.957318
