19

C	3.669162	-0.498184	-0.18436
O	2.280692	-0.449697	-0.404701
C	1.625249	0.45835	0.463087
C	0.155021	0.403453	0.216559
C	-0.66425	1.438394	-0.102156
O	-1.951633	1.016291	-0.224901
C	-1.959341	-0.330018	0.012972
C	-3.274718	-1.015745	-0.080565
C	-0.697831	-0.752609	0.289987
H	3.911458	-0.814284	0.843483
H	4.086363	-1.225587	-0.884959
H	4.147838	0.478802	-0.360573
H	1.852378	0.193151	1.511149
H	1.999021	1.484248	0.306652
H	-0.494903	2.490502	-0.26448
H	-3.996127	-0.60171	0.633121
H	-3.710704	-0.915132	-1.081093
H	-3.153454	-2.079739	0.133762
H	-0.394094	-1.764861	0.506615
