19
../xyz/dsC7O2H10nsd_3050.xyz
O          1.82713       -1.39625       -0.51361
C          0.88783       -0.37174       -0.67434
C          1.19289        0.96046        0.03475
C         -0.03556        1.82526       -0.41388
C         -1.11589        0.80781        0.05049
C         -2.04214       -0.30029       -0.57047
C         -1.37684       -1.31449        0.45522
C         -0.20679       -0.33088        0.42688
O          0.80664        0.27821        1.30660
H          2.06347       -1.38926        0.42395
H          0.60060       -0.35165       -1.72832
H          2.18615        1.40619        0.08053
H         -0.11139        2.77884        0.11148
H          0.01398        2.02588       -1.48814
H         -1.61787        1.17900        0.94829
H         -3.11758       -0.14715       -0.47399
H         -1.80586       -0.55654       -1.60475
H         -1.92125       -1.31884        1.40286
H         -1.18145       -2.33899        0.13229
