19

C	2.662907	-0.359815	0.111328
O	1.703307	0.668119	-0.102285
C	0.395931	0.269093	-0.096717
C	-0.617439	1.412277	-0.31483
C	-1.853628	0.568263	-0.04753
C	-1.533864	-0.854431	-0.529125
C	-0.114529	-0.833866	-1.070817
C	-1.373216	-0.482574	0.928812
O	-0.005603	-0.260758	1.194125
H	2.701456	-1.058467	-0.734359
H	3.630183	0.137757	0.202344
H	2.449467	-0.91527	1.029997
H	-0.467722	2.21088	0.415789
H	-0.563458	1.82077	-1.326841
H	-2.85906	0.966012	-0.036
H	-2.297268	-1.535992	-0.879282
H	0.402476	-1.786734	-0.932304
H	-0.036215	-0.519987	-2.114951
H	-1.938464	-0.891537	1.754155
