19

O	3.108093	-0.272103	-0.364349
C	2.174503	0.525768	0.334007
C	0.800915	0.415152	-0.309283
O	0.398769	-0.982251	-0.353946
C	-0.651818	-0.7646	0.623543
C	-2.055281	-1.042981	0.065133
C	-2.494906	0.309479	-0.449435
C	-1.629686	1.281899	-0.158531
C	-0.420426	0.771223	0.574244
H	2.688126	-1.137357	-0.454666
H	2.10702	0.234056	1.396016
H	2.532844	1.560867	0.29417
H	0.814017	0.844187	-1.317996
H	-0.435701	-1.290786	1.558378
H	-1.999755	-1.803469	-0.722821
H	-2.738085	-1.428763	0.83389
H	-3.425145	0.449273	-0.989408
H	-1.748385	2.325344	-0.429191
H	-0.189625	1.305832	1.499913
