19

C	-2.742078	-0.263362	-0.101283
C	-1.263526	-0.005948	-0.080448
C	-0.552529	1.149566	-0.788762
C	0.509863	1.186402	0.360225
O	1.829462	0.810699	-0.014933
C	1.999904	-0.586839	-0.05435
O	0.886919	-1.255351	-0.604105
C	-0.25022	-1.077985	0.209135
C	-0.291815	0.115651	1.118218
H	-3.306822	0.630462	0.187082
H	-3.073172	-0.556017	-1.104871
H	-3.019271	-1.068975	0.586704
H	-0.16065	0.951514	-1.789362
H	-1.157536	2.060328	-0.802609
H	0.588202	2.155239	0.854483
H	2.856261	-0.790279	-0.700829
H	2.190004	-0.970861	0.961515
H	-0.644847	-2.014131	0.597076
H	-0.460816	0.055023	2.186704
