19
../xyz/dsC7O2H10nsd_4498.xyz
C          0.36205        2.14905        0.48786
C         -0.15409        0.97430       -0.34502
C         -1.69481        0.80006       -0.31010
C         -1.96232       -0.70193       -0.55553
C         -0.73044       -1.38793        0.00233
O         -0.30980       -0.91401        1.27581
C          0.35715       -0.38310        0.10989
C          1.77745       -0.79354       -0.03047
O          2.59790       -0.17821       -0.66627
H          1.44872        2.23830        0.40632
H         -0.08162        3.09002        0.14768
H          0.10296        2.01526        1.54341
H          0.18396        1.09684       -1.38198
H         -2.06232        1.07867        0.68118
H         -2.19885        1.44028       -1.03791
H         -2.88528       -1.05442       -0.08482
H         -2.03047       -0.93274       -1.62555
H         -0.53646       -2.44164       -0.18777
H          2.02460       -1.73420        0.50931
