19

O	3.770057	-0.285945	-0.263932
C	2.411353	-0.027534	-0.558183
C	1.498038	-0.242915	0.667966
C	0.048615	-0.024351	0.362918
C	-0.893184	-0.971315	0.22268
C	-2.208225	-0.380367	-0.096019
O	-3.250649	-0.964332	-0.28427
C	-2.010658	1.145399	-0.144867
C	-0.517902	1.368846	0.155536
H	4.07505	0.383108	0.357296
H	2.271979	0.985912	-0.964085
H	2.133995	-0.734515	-1.346154
H	1.665118	-1.25785	1.040556
H	1.814572	0.453885	1.457857
H	-0.749553	-2.039717	0.328575
H	-2.312439	1.51827	-1.127778
H	-2.670654	1.618368	0.587907
H	0.001263	1.886952	-0.659867
H	-0.352823	1.981222	1.051123
