19

C	0.754123	1.957323	0.558191
C	0.159311	0.692815	-0.017598
O	-1.079629	0.990309	-0.64128
C	-1.922908	-0.155925	-0.599413
C	-1.584392	-0.864914	0.721171
C	-0.088403	-0.588791	0.892649
C	0.837558	-1.367616	-0.051929
O	2.105145	-0.70034	-0.047408
C	1.075242	-0.190407	-0.901923
H	1.744569	1.749169	0.969062
H	0.846444	2.72173	-0.219957
H	0.115179	2.357046	1.351438
H	-2.957855	0.19117	-0.65973
H	-1.733017	-0.814334	-1.459915
H	-2.139637	-0.410617	1.547376
H	-1.82922	-1.931149	0.699546
H	0.242853	-0.550931	1.931961
H	0.833619	-2.42453	-0.29577
H	1.289755	-0.102214	-1.961398
