19
../xyz/dsC7O2H10nsd_2331.xyz
O          1.40846       -1.18722       -1.12888
C          0.82376       -0.53813       -0.04092
C          1.76540        0.55424        0.55600
C          0.79839        1.68890        0.06354
C         -0.24081        0.60596       -0.14834
O         -1.32944        0.60004       -1.06295
C         -2.15712       -0.12101       -0.10757
C         -1.04922       -0.10712        0.97018
C         -0.06507       -1.31403        0.96980
H          0.69708       -1.50209       -1.69853
H          1.88043        0.50363        1.64077
H          2.74943        0.55197        0.08708
H          0.55922        2.50328        0.75262
H          1.13883        2.11262       -0.88586
H         -3.05651        0.45359        0.14005
H         -2.45296       -1.10906       -0.48206
H         -1.29996        0.35999        1.92214
H          0.39937       -1.55950        1.92917
H         -0.49904       -2.22981        0.55311
