19

C	2.472114	0.316851	0.648136
C	1.449018	0.029603	-0.455043
O	1.072248	-1.342196	-0.519951
C	-0.158349	-1.541589	0.183505
C	-0.901343	-0.224629	0.08089
C	-2.263384	-0.050592	-0.574251
C	-2.108884	0.17057	0.895392
C	0.144035	0.79866	-0.222221
O	-0.000929	1.996009	-0.270198
H	2.076885	0.051712	1.634057
H	3.38214	-0.262993	0.474963
H	2.720898	1.381977	0.652362
H	1.867853	0.307162	-1.429187
H	-0.676823	-2.379955	-0.290878
H	0.0361	-1.809482	1.234122
H	-2.384918	0.820285	-1.209279
H	-2.758805	-0.952469	-0.917913
H	-2.123969	1.193206	1.257822
H	-2.50915	-0.573188	1.576681
