19

C	-3.245605	-0.38867	-0.214034
C	-1.854256	0.163297	0.03315
O	-1.665118	1.170888	0.674552
C	-0.695235	-0.613012	-0.595602
C	0.641454	-0.211392	-0.050192
C	1.351469	-0.91384	1.092659
C	2.03603	-0.765683	-0.232917
O	2.62692	0.527719	-0.35717
C	1.310703	1.14504	-0.257772
H	-3.996795	0.322091	0.132127
H	-3.3971	-0.609438	-1.276222
H	-3.366983	-1.334871	0.326781
H	-0.868946	-1.689475	-0.475322
H	-0.750311	-0.428849	-1.680374
H	1.71884	-0.35665	1.950263
H	0.973703	-1.908102	1.315057
H	2.442044	-1.57314	-0.832636
H	1.241708	1.871876	0.556745
H	1.042074	1.623257	-1.207218
