19
../xyz/dsC7O2H10nsd_3453.xyz
O          2.40130       -0.15168       -0.15173
C          1.14936       -0.35776        0.49941
C          0.60308       -1.75047        0.28191
C         -0.60297       -1.75051       -0.28185
C         -1.14932       -0.35784       -0.49942
O         -2.40130       -0.15179        0.15165
C         -0.00001        0.54100        0.00000
C          0.31487        1.84935       -0.68216
C         -0.31498        1.84931        0.68219
H          2.26215       -0.31265       -1.09225
H          1.37964       -0.17438        1.55592
H          1.18645       -2.62712        0.54212
H         -1.18631       -2.62719       -0.54203
H         -1.37956       -0.17450       -1.55595
H         -2.26218       -0.31272        1.09219
H          1.36178        2.12034       -0.76268
H         -0.30032        2.13856       -1.52856
H          0.30018        2.13854        1.52862
H         -1.36191        2.12023        0.76272
