19

C	2.298498	-0.278594	-0.806017
C	1.558333	0.319052	0.412045
C	0.652904	-0.694	1.138909
C	-0.700285	-0.917559	0.472883
O	-0.520782	-1.712458	-0.700923
C	-1.391874	0.387517	0.044996
O	-2.584435	0.37943	-0.203316
C	-0.549411	1.576002	-0.149987
C	0.782327	1.539377	-6.3e-05
H	2.945916	-1.100968	-0.485751
H	1.583929	-0.668006	-1.532938
H	2.926071	0.475019	-1.292958
H	2.328271	0.648392	1.123022
H	1.161163	-1.658378	1.242603
H	0.457868	-0.322585	2.151919
H	-1.379051	-1.427571	1.171562
H	-1.384643	-1.778469	-1.125718
H	-1.066669	2.474275	-0.473226
H	1.365934	2.431745	-0.221197
