19
../xyz/dsC7O2H10nsd_4534.xyz
C         -0.33156        1.96666       -0.45836
C         -0.61199        0.74799        0.42219
O         -2.02150        0.48629        0.45287
C         -2.30463       -0.82273       -0.02512
C         -0.96731       -1.41994       -0.34181
C          0.00334       -0.54928       -0.06849
C          1.44889       -0.81795       -0.18022
C          2.45115       -0.25894        0.74831
O          2.32355        0.25564       -0.57278
H         -0.89007        2.82807       -0.08152
H          0.73555        2.19925       -0.46487
H         -0.64867        1.76962       -1.48687
H         -0.28368        0.97042        1.45124
H         -2.84469       -1.39602        0.74583
H         -2.96484       -0.77228       -0.90610
H         -0.83850       -2.42653       -0.72137
H          1.69420       -1.77018       -0.65075
H          2.13609        0.41122        1.54615
H          3.36080       -0.82380        0.94847
