19
../xyz/dsC7O2H10nsd_5180.xyz
C          2.89107        0.11044        0.02153
C          1.58656        0.90871       -0.10599
C          0.36853        0.03484       -0.06161
C          0.00716       -1.03788       -1.13120
C         -1.41087       -0.95003       -0.57748
C         -1.20357       -0.68872        0.94862
O          0.19575       -0.69428        1.19588
C         -1.18857        0.43750       -0.02602
O         -1.90356        1.58462       -0.23623
H          3.75737        0.77821        0.01960
H          2.90140       -0.46256        0.95261
H          3.00786       -0.59357       -0.80854
H          1.52083        1.64475        0.70463
H          1.57309        1.47180       -1.04705
H          0.06778       -0.63413       -2.14534
H          0.54630       -1.98721       -1.05856
H         -2.32975       -1.37824       -0.95669
H         -1.88818       -1.00849        1.72285
H         -1.79613        2.15760        0.53214
