19

C	-4.424019	-0.20433	0.33299
O	-3.093649	0.246353	0.433598
C	-2.253474	-0.364909	-0.527568
C	-0.89036	0.129226	-0.393254
C	0.242754	0.525056	-0.310089
C	1.618603	0.991465	-0.176518
C	2.518041	-0.005445	0.53477
C	3.957617	-0.066278	0.260886
O	3.06476	-1.05397	-0.259917
H	-4.999509	0.311709	1.104663
H	-4.861914	0.025564	-0.651805
H	-4.502936	-1.29127	0.496392
H	-2.266336	-1.46239	-0.405228
H	-2.626252	-0.160878	-1.546988
H	2.045619	1.203049	-1.164348
H	1.629619	1.937532	0.382054
H	2.161726	-0.325387	1.514278
H	4.392424	0.60571	-0.478572
H	4.643703	-0.411413	1.032805
