19
../xyz/dsC7O2H10nsd_1703.xyz
C          0.47046        1.87858        0.74784
C          0.47282        0.41857        0.30158
C          0.65880       -0.69827        1.36951
C         -0.52957       -1.49469        0.75148
C         -0.89627       -0.23741       -0.03184
C         -2.19706        0.41264       -0.19860
O         -1.51998       -0.20935       -1.30227
C          1.40226        0.24147       -0.88893
O          2.24828       -0.60950       -0.98886
H          0.22144        2.55020       -0.08195
H         -0.26326        2.03769        1.54326
H          1.45339        2.17369        1.13093
H          1.63012       -1.19162        1.34153
H          0.45151       -0.33789        2.37924
H         -0.18985       -2.29409        0.08793
H         -1.28420       -1.89143        1.43363
H         -3.09702       -0.09846        0.14161
H         -2.27010        1.49798       -0.24910
H          1.23294        0.97940       -1.70426
