19

C	-1.425384	1.486901	0.373209
C	-0.594502	0.421444	-0.327836
C	-1.504528	-0.829335	-0.622464
O	-1.010398	-1.422037	0.636834
C	0.157737	-0.599205	0.493845
C	1.194026	0.28822	1.224375
C	1.609892	0.45452	-0.310327
C	1.307629	-1.039313	-0.465019
O	0.488454	1.042847	-1.041569
H	-0.79634	2.250103	0.834803
H	-2.065093	1.987601	-0.362022
H	-2.06713	1.037577	1.136673
H	-2.584351	-0.669627	-0.584733
H	-1.231989	-1.442435	-1.4856
H	0.83837	1.153472	1.782794
H	1.984096	-0.232119	1.768078
H	2.540335	0.934889	-0.602048
H	1.070371	-1.380434	-1.472857
H	2.01806	-1.70491	0.028089
