19
../xyz/dsC7O2H10nsd_3695.xyz
C         -2.32408        1.31279        0.13325
C         -1.39856        0.16488       -0.09422
C         -1.74273       -1.28768       -0.21564
C         -0.70238       -0.84040        0.80107
C          0.54183       -0.43817        0.06160
C          1.78994       -1.12944       -0.39281
C          1.85775        0.07789        0.54080
O          2.27360        1.31147        0.04893
O         -0.18317        0.43097       -0.83614
H         -1.80763        2.14506        0.62145
H         -2.72960        1.67276       -0.81907
H         -3.16431        1.00540        0.76209
H         -2.69772       -1.57774        0.21220
H         -1.44149       -1.84394       -1.09854
H         -0.78246       -1.01671        1.86535
H          2.01853       -2.11176        0.00853
H          2.09109       -0.96269       -1.42191
H          2.15178       -0.09459        1.57372
H          1.50776        1.68558       -0.41042
