19

C	2.523039	-1.09939	0.015043
C	1.740382	0.201249	-0.004708
O	2.284846	1.282927	-0.009898
C	0.245818	0.085693	-0.013331
C	-0.655133	-0.759877	-0.978222
C	-1.614662	-0.045771	-0.000608
O	-2.984961	-0.192848	-0.061756
C	-0.764382	1.250398	-0.181214
C	-0.648104	-0.453278	1.157535
H	3.589112	-0.885981	0.10041
H	2.200918	-1.733975	0.847575
H	2.335266	-1.664053	-0.905264
H	-0.682829	-0.431888	-2.020264
H	-0.587861	-1.847114	-0.890941
H	-3.388192	0.419521	0.563112
H	-0.794829	1.727038	-1.163474
H	-0.792552	1.983338	0.628899
H	-0.664919	0.158555	2.063662
H	-0.574956	-1.520215	1.382545
