19

C	2.518191	0.586021	-0.008455
C	1.076422	0.151317	-0.047099
C	0.664821	-1.00015	-1.005493
C	-0.764427	-1.120535	-0.501402
C	-0.671312	-0.70107	0.957258
O	0.671603	-0.369987	1.244366
C	-1.199657	0.275036	-0.071316
O	-2.528265	0.651323	-0.18751
C	-0.021354	1.207488	-0.332961
H	2.665639	1.37157	0.738354
H	3.164633	-0.257924	0.250056
H	2.827879	0.973139	-0.983592
H	0.73841	-0.71108	-2.057732
H	1.260386	-1.90165	-0.833259
H	-1.481115	-1.853455	-0.845538
H	-1.236495	-1.130582	1.772618
H	-2.739604	1.238728	0.546952
H	0.011527	1.587369	-1.357759
H	0.025935	2.044554	0.371852
