19
../xyz/dsC7O2H10nsd_4104.xyz
C         -2.79629       -0.55637       -0.36241
C         -1.31731       -0.21855       -0.37308
C         -0.96862        1.27298       -0.17376
C          0.42471        1.25039        0.47414
C          1.64124        1.05453       -0.47897
C          1.65926       -0.43953       -0.10128
O          2.25350       -1.39301       -0.50762
C          0.53545       -0.23614        0.96896
O         -0.68389       -0.88830        0.72711
H         -3.25733       -0.21930        0.57109
H         -3.30484       -0.06909       -1.19994
H         -2.94488       -1.63578       -0.45123
H         -0.86734       -0.57704       -1.31387
H         -0.99940        1.83327       -1.11238
H         -1.69212        1.72552        0.51252
H          0.55613        2.02720        1.22629
H          1.48125        1.25860       -1.54253
H          2.55048        1.57685       -0.16477
H          0.85058       -0.43366        1.99732
