19

O	-1.754926	-1.284979	-0.613353
C	-0.940982	-0.383468	0.088465
C	-1.707095	0.678694	0.808524
C	-0.869349	1.054255	-0.400393
C	0.461944	1.763261	-0.214026
O	1.562631	0.888108	-0.467607
C	1.603988	-0.194588	0.410258
C	1.386129	-1.545426	-0.199421
C	0.312265	-0.937112	0.689141
H	-1.206027	-1.711485	-1.280883
H	-2.783998	0.656528	0.687664
H	-1.360035	0.999869	1.786175
H	-1.411232	1.26266	-1.316594
H	0.573521	2.58461	-0.926042
H	0.545877	2.183428	0.799257
H	2.322189	-0.083841	1.22171
H	1.229532	-1.546146	-1.273462
H	1.937099	-2.397669	0.181821
H	0.210029	-1.386682	1.672754
