19

O	2.054848	-0.989498	0.0
C	1.404125	0.233926	1e-06
C	0.303334	0.663544	1.048748
C	-0.014924	1.770004	-1e-06
C	0.303336	0.663543	-1.048748
C	-0.844245	-0.415099	-0.994367
C	-1.961698	-0.017112	-3e-06
C	-0.844249	-0.415097	0.994367
O	-0.457568	-1.435828	3e-06
H	1.344257	-1.647247	4e-06
H	2.192808	0.990583	3e-06
H	0.590685	0.933789	2.066168
H	-0.993711	2.242567	-2e-06
H	0.745578	2.55396	-1e-06
H	0.590689	0.933786	-2.066168
H	-1.088354	-0.858706	-1.960491
H	-2.39518	0.980447	-6e-06
H	-2.750724	-0.770124	-3e-06
H	-1.088363	-0.8587	1.960491
