19

C	3.065422	0.796107	0.329043
C	2.304199	-0.47293	-0.069927
C	0.831623	-0.420781	0.282673
C	-0.178366	-1.162038	-0.519945
O	-1.377481	-1.538224	0.119068
C	-2.073103	-0.377495	0.550768
C	-1.375395	0.842669	-0.076905
O	-1.821276	1.961652	-0.101729
C	-0.109636	0.339233	-0.678518
H	2.653433	1.678048	-0.171604
H	3.003178	0.969357	1.408589
H	4.1239	0.719174	0.063282
H	2.411908	-0.64582	-1.148174
H	2.750779	-1.344401	0.425664
H	0.617153	-0.315323	1.344114
H	0.114492	-1.856589	-1.299473
H	-3.115839	-0.426295	0.219638
H	-2.069737	-0.290787	1.646693
H	0.312327	0.856626	-1.530573
