19
../xyz/dsC7O2H10nsd_2983.xyz
O         -0.52336        2.03735        0.01436
C          0.00079        0.90563       -0.63651
C          1.46800        0.59046       -0.27869
C          1.59040       -0.87630       -0.78844
C          0.59955       -1.16053        0.38400
C          1.34235       -0.01951        1.14718
C         -0.62376       -0.41321       -0.10434
C         -1.92282       -0.95038       -0.49666
O         -1.75675       -0.25545        0.75717
H         -1.28789        1.72552        0.51975
H         -0.12501        1.01197       -1.72358
H          2.20305        1.35634       -0.52221
H          1.26449       -1.10379       -1.80873
H          2.57840       -1.30303       -0.60601
H          0.44585       -2.15338        0.80581
H          0.78426        0.54668        1.89546
H          2.30264       -0.34878        1.54886
H         -2.52471       -0.42780       -1.23909
H         -2.12731       -2.01593       -0.40177
