19
../xyz/dsC7O2H10nsd_2151.xyz
C         -2.34737        0.45270        0.29302
C         -0.87076        0.24073        0.03306
C         -0.08000        1.53420       -0.21368
C          1.40115        1.33206        0.13516
O          1.87329        0.05090       -0.26870
C          1.18990       -0.99689        0.35015
C         -0.02667       -1.61180       -0.28779
O         -0.69116       -0.66730       -1.11221
C         -0.16886       -0.76905        0.96467
H         -2.80230        1.00303       -0.53696
H         -2.86009       -0.50777        0.39311
H         -2.49822        1.02930        1.21221
H         -0.20207        1.79374       -1.27029
H         -0.48502        2.36097        0.38135
H          2.03688        2.06140       -0.37256
H          1.54555        1.45296        1.21968
H          1.84140       -1.68701        0.88359
H         -0.16849       -2.66637       -0.49442
H         -0.44908       -1.00078        1.98408
