19

C	-2.434132	0.418688	0.197682
C	-0.97848	0.113269	-0.053722
O	-0.303593	1.159177	-0.703486
C	0.831814	1.633535	0.012255
C	1.894807	0.538822	0.189514
C	1.207142	-0.802317	0.442289
O	0.745943	-1.401883	-0.808354
C	-0.604056	-1.312642	-0.376
C	-0.233557	-0.715843	0.969865
H	-2.923201	0.707212	-0.737683
H	-2.956067	-0.45293	0.605363
H	-2.543802	1.245015	0.908021
H	1.215535	2.481994	-0.559292
H	0.518374	2.00614	0.999577
H	2.51075	0.434747	-0.709409
H	2.560173	0.798199	1.021271
H	1.844923	-1.514494	0.973396
H	-1.29298	-2.094287	-0.676544
H	-0.573731	-0.911024	1.978722
