19
../xyz/dsC7O2H10nsd_5432.xyz
C         -3.07036       -0.40377       -0.51075
C         -1.93631       -0.81594        0.43611
C         -0.56463       -0.61038       -0.17547
C          0.63143       -0.51213        0.80280
C          1.87945       -0.40016       -0.02080
O          2.96417       -0.88186       -0.06912
O          1.37397        0.61684       -0.82570
C          0.16013        0.67884       -0.00581
C         -0.32616        2.04157        0.35326
H         -4.04718       -0.59179       -0.05568
H         -3.01371        0.66019       -0.76142
H         -3.02403       -0.96764       -1.44819
H         -2.01242       -0.25790        1.37730
H         -2.04477       -1.87402        0.70343
H         -0.39658       -1.14205       -1.11013
H          0.54883       -0.75891        1.85171
H          0.46110        2.61475        0.85133
H         -0.62841        2.58743       -0.54682
H         -1.18917        1.98186        1.02100
