19

O	1.957185	-1.136589	-0.104617
C	0.553572	-0.965265	-0.026918
C	0.074065	-0.013206	-1.139087
C	0.817356	1.298837	-0.757005
C	0.82453	1.263528	0.809006
C	0.075773	-0.057777	1.138275
C	-1.376368	0.201901	0.742362
O	-2.023892	-0.835181	-0.012123
C	-1.377431	0.22879	-0.727308
H	2.217622	-1.756039	0.583501
H	0.034761	-1.925609	-0.047893
H	0.238765	-0.356587	-2.16096
H	1.833278	1.291813	-1.154537
H	0.307181	2.181296	-1.154346
H	1.845736	1.229151	1.192508
H	0.329043	2.132081	1.252655
H	0.237623	-0.441807	2.147913
H	-2.029552	0.814207	1.357889
H	-2.029793	0.864806	-1.318753
