19
../xyz/dsC7O2H10nsd_1904.xyz
O         -0.74325        1.77490       -0.43258
C          0.13140        0.86455        0.11147
C         -0.13789        0.21834        1.41611
C         -0.20771       -0.67955        0.17135
C          1.04819       -1.44780       -0.19913
C          2.19785       -0.41043       -0.10232
C          1.55848        0.96521       -0.38772
C         -1.52763       -1.02862       -0.34085
O         -2.52857       -0.35288       -0.15566
H         -1.64395        1.44661       -0.26737
H          0.66799        0.02124        2.11595
H         -1.09924        0.43672        1.86951
H          1.23327       -2.31364        0.44636
H          0.95294       -1.82470       -1.22480
H          2.62624       -0.42314        0.90475
H          3.01607       -0.63460       -0.79063
H          2.10718        1.78765        0.08260
H          1.51471        1.17219       -1.46238
H         -1.57676       -1.93468       -0.98156
