19

O	-2.489015	-0.083624	0.272908
C	-1.501534	-0.643477	-0.603405
C	-0.159237	-0.476768	0.050924
C	0.488424	-1.596399	0.817021
C	1.087216	-1.14093	-0.505445
C	2.155604	-0.105946	-0.408495
C	1.708367	1.027681	0.137133
C	0.23676	0.956956	0.471627
O	-0.480977	1.961259	-0.231377
H	-3.34329	-0.136998	-0.167058
H	-1.702827	-1.707608	-0.795094
H	-1.509895	-0.113568	-1.565655
H	1.037531	-1.362582	1.72412
H	-0.030145	-2.550897	0.833717
H	1.055974	-1.820366	-1.351479
H	3.179626	-0.29436	-0.711698
H	2.301094	1.906729	0.360226
H	0.082882	1.085666	1.555343
H	-1.404611	1.846203	0.029166
