19
../xyz/dsC7O2H10nsd_0858.xyz
O         -3.40419       -0.56284       -0.31877
C         -2.41938       -0.29012        0.31620
C         -1.06082        0.02526       -0.25736
C         -0.57306        1.44290        0.13719
C          0.95638        1.39628       -0.06125
C          1.33481       -0.08199        0.08450
C          2.65663       -0.56229        0.49788
O          2.25969       -0.60368       -0.87603
C          0.05262       -0.87933        0.31454
H         -2.45004       -0.24562        1.43344
H         -1.11593       -0.07247       -1.34576
H         -1.05873        2.22769       -0.44701
H         -0.81430        1.62538        1.19224
H          1.23216        1.71792       -1.07030
H          1.48788        2.04013        0.64454
H          3.44225        0.15414        0.73717
H          2.75465       -1.53193        0.98652
H          0.10504       -1.86408       -0.15413
H         -0.11001       -1.02321        1.39159
