19

C	2.209417	1.117928	-0.005668
C	1.20732	-0.026821	-0.004518
O	1.891052	-1.269288	-0.084761
C	-0.013901	0.016532	0.95741
C	-0.717051	1.039154	-0.0021
C	-2.19826	0.683382	-0.00321
O	-2.135002	-0.749589	0.007434
C	-0.742382	-0.99001	0.010863
C	-0.011713	0.005015	-0.948316
H	2.845223	1.056212	-0.894249
H	1.734063	2.100698	0.012714
H	2.861408	1.054403	0.875192
H	2.57207	-1.280269	0.595706
H	-0.022606	0.029074	2.049075
H	-0.440902	2.091899	-0.009337
H	-2.731337	1.046661	0.88464
H	-2.727347	1.033543	-0.898781
H	-0.525447	-2.052697	0.016064
H	-0.014109	0.000418	-2.03918
