19
../xyz/dsC7O2H10nsd_3615.xyz
C          3.05631       -0.33168        0.50980
C          1.84127       -0.36789       -0.40499
C          0.65834       -1.35216       -0.13061
C         -0.37573       -0.21813       -0.43438
C         -1.57313       -0.04078        0.45612
C         -2.86017       -0.68876        0.16393
O         -2.66912        0.70507       -0.07335
C          0.80800        0.76508       -0.28405
O          0.88629        1.92109        0.01461
H          3.66812       -1.23161        0.39311
H          3.68045        0.53775        0.28338
H          2.75463       -0.25920        1.55976
H          2.15131       -0.44755       -1.45516
H          0.59886       -2.24261       -0.75718
H          0.62598       -1.65361        0.92087
H         -0.70355       -0.24963       -1.47950
H         -1.34589        0.18882        1.49842
H         -2.95912       -1.30691       -0.72786
H         -3.53754       -0.93885        0.97925
