19
../xyz/dsC7O2H10nsd_0234.xyz
C          1.30400        1.10288       -0.63915
C          1.64753       -0.31557       -0.14621
O          0.78960       -1.31942       -0.73540
C         -0.10025       -1.31242        0.41765
C         -1.54766       -1.01101        0.06330
C         -1.67538        0.36411       -0.59200
O         -1.11274        1.39579        0.20988
C          0.24957        1.22890        0.51989
C          0.69031       -0.16399        1.06800
H          2.12344        1.81747       -0.51940
H          0.93367        1.15693       -1.66464
H          2.69122       -0.63458       -0.10049
H         -0.01819       -2.26403        0.95829
H         -1.93622       -1.78209       -0.61225
H         -2.14381       -1.04369        0.98401
H         -1.20105        0.34077       -1.58261
H         -2.72494        0.63743       -0.72766
H          0.48526        2.04791        1.20244
H          0.96696       -0.24444        2.11767
