19
../xyz/dsC7O2H10nsd_4056.xyz
C          2.39515        0.18313        0.45456
C          1.22095       -0.11549       -0.46495
O          0.80810       -1.49990       -0.31200
C         -0.54716       -1.38987        0.02095
C         -1.23737       -0.24432       -0.77031
O         -2.11637        0.04619        0.36521
C         -0.80521       -0.19061        0.97675
C         -0.08143        0.62337       -0.15649
C         -0.14768        2.12783       -0.19543
H          2.10850        0.07668        1.50559
H          3.21473       -0.51198        0.25276
H          2.76420        1.20147        0.29542
H          1.51997        0.03844       -1.51158
H         -1.02703       -2.35445        0.16966
H         -1.66549       -0.22244       -1.77299
H         -0.72261       -0.10787        2.06063
H          0.53182        2.57927        0.53502
H          0.12437        2.51231       -1.18491
H         -1.16577        2.45403        0.03417
