19

O	-3.321302	-0.009196	-0.222272
C	-2.270993	-0.155732	0.346591
C	-0.903676	0.030997	-0.275081
C	-0.178075	1.214861	0.399924
C	1.169551	1.487725	-0.282156
C	2.022877	0.244004	-0.371029
O	2.103876	-0.549441	0.816627
C	1.4072	-1.092083	-0.314085
C	-0.090596	-1.278452	-0.150084
H	-2.237489	-0.446359	1.424974
H	-1.061979	0.269254	-1.332797
H	-0.803921	2.111554	0.349353
H	-0.011458	0.990957	1.459316
H	1.007717	1.869063	-1.29905
H	1.716189	2.266991	0.262061
H	2.971197	0.355718	-0.898561
H	1.931797	-1.922541	-0.78701
H	-0.448407	-1.999689	-0.892399
H	-0.261963	-1.733776	0.834784
