19

C	2.555476	-0.399853	0.225888
C	1.337311	-0.643592	-0.659854
C	0.190954	-1.460657	0.00629
C	-0.63435	-0.159808	0.215257
O	-0.41065	0.320854	1.545945
C	-2.047175	-0.169242	-0.115749
C	-3.216005	-0.143595	-0.40003
C	0.351514	0.569042	-0.780325
O	0.770115	1.842743	-0.395535
H	3.202751	0.371232	-0.20274
H	2.263507	-0.079094	1.230946
H	3.142447	-1.318107	0.331328
H	1.660499	-1.031993	-1.629654
H	-0.307226	-2.158183	-0.668639
H	0.432881	-1.970483	0.941376
H	-1.068854	1.003772	1.717595
H	-4.247632	-0.130958	-0.652698
H	-0.077551	0.651679	-1.781514
H	0.897104	1.799588	0.561856
