19

C	-1.682334	1.268257	0.895534
C	-1.073193	0.664251	-0.386594
C	0.251511	1.368848	-0.763994
C	1.467403	0.84282	-0.021886
O	2.043082	-0.358412	-0.552737
C	1.436059	-0.420845	0.738579
C	0.177966	-1.254664	0.819215
C	-0.876143	-0.839915	-0.20623
O	-1.541535	-1.655151	-0.797621
H	-1.950501	2.315159	0.722768
H	-2.588477	0.733445	1.195835
H	-0.976991	1.242039	1.732521
H	-1.792195	0.778958	-1.202241
H	0.446502	1.254324	-1.835697
H	0.147427	2.443285	-0.575607
H	2.210679	1.587361	0.263763
H	2.143126	-0.553336	1.558726
H	0.402063	-2.315429	0.674478
H	-0.261614	-1.149822	1.82057
