19

C	-2.007371	0.629318	0.126885
O	-1.863678	-0.817786	-0.034978
C	-0.439245	-0.665059	-0.074467
C	0.675239	-1.31309	-0.901898
C	1.581779	-0.561595	0.14628
C	0.447812	-0.79595	1.180573
C	1.666413	0.966992	-0.10827
O	0.405303	1.621382	0.116513
C	-0.589423	0.806867	-0.444636
H	-2.848408	1.022586	-0.449119
H	-2.102499	0.91051	1.182366
H	0.767886	-2.396588	-0.787587
H	0.744564	-1.034805	-1.957614
H	2.570889	-0.979672	0.336478
H	0.449439	-1.816891	1.568677
H	0.324548	-0.072432	1.987939
H	2.368967	1.430568	0.590032
H	2.016787	1.16708	-1.133341
H	-0.636394	0.93598	-1.536916
