19

C	-2.705783	-0.224955	-0.031792
O	-1.498894	0.422855	-0.366002
C	-0.433396	0.138575	0.515017
C	0.102412	-1.300017	0.482863
O	0.58517	-1.727419	-0.790997
C	1.536132	-1.224982	0.178027
C	1.867864	0.218103	-0.022652
C	0.77824	0.979188	0.117023
C	0.630924	2.446027	-0.114501
H	-3.023075	0.013212	0.996348
H	-3.467033	0.134438	-0.728121
H	-2.62953	-1.3174	-0.127736
H	-0.741692	0.375251	1.55194
H	-0.335938	-2.074003	1.106975
H	2.262353	-1.950342	0.531667
H	2.853712	0.573996	-0.297586
H	0.275453	2.956076	0.79013
H	1.575663	2.902783	-0.419885
H	-0.11847	2.630866	-0.891647
