19
../xyz/dsC7O2H10nsd_4853.xyz
O         -2.25672       -1.18335        0.06769
C         -1.14858       -0.74047       -0.72407
C         -0.60997        0.48369       -0.03176
O         -1.60833        1.44476        0.17486
C          0.72920        1.09604       -0.29549
C          1.83217        0.29335       -0.99079
C          2.10643       -0.84565       -0.02832
C          1.37445       -0.74950        1.08621
C          0.46520        0.42600        1.05925
H         -2.79775       -1.76912       -0.46857
H         -0.38580       -1.52196       -0.80773
H         -1.48292       -0.46109       -1.73397
H         -2.36351        0.94997        0.51997
H          0.72561        2.17633       -0.37972
H          1.53207       -0.06752       -1.98385
H          2.72737        0.90892       -1.15216
H          2.80663       -1.64203       -0.25418
H          1.40343       -1.44787        1.91513
H          0.26191        1.00234        1.95454
