19

O	2.46054	-0.149382	0.275696
C	1.257505	-0.440722	-0.426105
C	0.747041	0.897186	-0.995104
C	-0.176797	1.457141	0.084486
C	-1.518119	0.773412	0.257502
O	-1.826851	-0.28031	-0.624439
C	-1.095225	-1.434438	-0.198144
C	0.14444	-0.902858	0.544133
C	-0.385579	0.4056	1.163248
H	2.74788	-0.952354	0.722152
H	1.444998	-1.185052	-1.215105
H	1.596026	1.556489	-1.186571
H	0.211541	0.739786	-1.936064
H	-0.111691	2.506248	0.351126
H	-2.385362	1.337404	0.584126
H	-1.714962	-2.046294	0.474293
H	-0.857538	-2.028571	-1.086654
H	0.517959	-1.624806	1.27595
H	-0.357955	0.60276	2.226588
