19

C	2.265735	-1.586916	-0.172519
C	1.32495	-0.50383	0.305906
O	1.681715	0.706275	-0.318664
C	0.831469	1.772361	0.075815
C	-0.63064	1.436734	-0.222818
C	-0.955259	0.070961	0.411285
O	0.005831	-0.894158	-0.018249
C	-2.289517	-0.406863	0.06968
C	-3.403185	-0.760755	-0.207134
H	3.295869	-1.318375	0.07182
H	2.015621	-2.536377	0.305516
H	2.172868	-1.697113	-1.255524
H	1.388899	-0.367108	1.404689
H	0.959566	1.97605	1.153103
H	1.160813	2.656626	-0.47562
H	-1.298152	2.207816	0.174506
H	-0.785547	1.365675	-1.303169
H	-0.88743	0.172089	1.509911
H	-4.384187	-1.086376	-0.451215
