19

O	2.573037	0.74033	0.496912
C	1.410898	0.406034	-0.238068
C	1.329103	-1.079436	-0.703635
C	0.095959	-1.312221	0.205414
C	-1.233194	-0.954259	-0.447341
C	-2.193784	-0.438849	0.601955
C	-1.124987	0.477004	0.073021
O	-1.418029	1.634719	-0.629861
C	0.220569	0.184333	0.722784
H	3.308564	0.794909	-0.121993
H	1.210507	1.151835	-1.017712
H	1.182066	-1.263169	-1.772052
H	2.208858	-1.630745	-0.361665
H	0.113505	-2.179421	0.868761
H	-1.57949	-1.303093	-1.413681
H	-3.186489	-0.2111	0.226479
H	-2.167305	-0.823912	1.619382
H	-1.754791	2.289734	-0.00821
H	0.397126	0.478931	1.759509
