19
../xyz/dsC7O2H10nsd_4399.xyz
C          3.10416       -0.05986        0.00521
C          1.63362       -0.02068       -0.37450
C          0.92315        1.23939        0.11921
O         -0.46686        1.19573       -0.16914
C         -1.07838        0.04659        0.41310
C         -0.37203       -1.22410       -0.09221
O          1.00869       -1.16728        0.20210
C         -2.49668        0.03831        0.08170
C         -3.66471       -0.02247       -0.19112
H          3.64385        0.77550       -0.45107
H          3.22206       -0.00132        1.09161
H          3.55646       -0.99400       -0.33707
H          1.52142       -0.06860       -1.47112
H          1.08648        1.34453        1.20516
H          1.31128        2.13094       -0.38178
H         -0.95512        0.08754        1.50943
H         -0.77303       -2.11019        0.40672
H         -0.54361       -1.31385       -1.17604
H         -4.69933       -0.06124       -0.42793
