19

C	-0.552828	2.183769	0.015945
C	-0.481062	0.793816	-0.593333
C	-1.206503	-0.421886	0.045284
O	-2.578553	-0.47246	0.1811
C	-0.282289	-1.341637	-0.816924
C	0.635759	-0.246761	-0.176308
C	-0.114274	-0.476972	1.161396
C	2.096868	-0.106022	-0.392019
O	2.926634	-0.12895	0.483623
H	-0.372392	2.197865	1.092882
H	0.180006	2.848554	-0.452912
H	-1.545551	2.611306	-0.159606
H	-0.622658	0.849068	-1.67853
H	-2.811166	-1.247931	0.70317
H	-0.118075	-2.360953	-0.458151
H	-0.418887	-1.300198	-1.900131
H	0.051232	-1.44865	1.633642
H	-0.091891	0.326096	1.896572
H	2.39071	0.030285	-1.458965
