19

C	-2.73329	-0.133224	0.354643
C	-1.632122	0.511432	-0.496143
C	-0.271876	-0.075872	-0.238616
O	0.167863	-0.05737	1.180097
C	1.493783	-0.312185	0.602141
C	1.306761	-1.651826	-0.094706
C	0.107219	-1.492052	-0.66532
C	1.089629	0.685648	-0.545937
O	1.104734	2.034155	-0.218461
H	-2.832662	-1.201175	0.135339
H	-2.503511	-0.034124	1.418804
H	-3.699902	0.341896	0.164236
H	-1.855877	0.396619	-1.564303
H	-1.587138	1.589647	-0.304057
H	2.325385	-0.137794	1.283466
H	2.009982	-2.470039	-0.142609
H	-0.457702	-2.1444	-1.315666
H	1.543522	0.561208	-1.530951
H	0.716506	2.092364	0.666279
