19

C	1.265935	1.213574	-0.465866
C	2.262792	0.079902	-0.433596
C	1.787672	-0.986853	0.208559
C	0.370064	-0.750353	0.667618
O	-0.496507	-1.380498	-0.291883
C	-1.800927	-0.873845	-0.252159
O	-1.856611	0.492202	-0.566062
C	-1.193829	1.255157	0.432698
C	0.252202	0.795905	0.624141
H	1.713633	2.193038	-0.265152
H	0.785363	1.276102	-1.451658
H	3.233723	0.138878	-0.913576
H	2.285946	-1.941631	0.323376
H	0.138966	-1.154751	1.664813
H	-2.371442	-1.404701	-1.017082
H	-2.251302	-1.043438	0.746417
H	-1.244812	2.300834	0.11512
H	-1.741967	1.164601	1.385995
H	0.613393	1.176525	1.586938
