19
../xyz/dsC7O2H10nsd_1332.xyz
C          1.42353        1.70871       -0.46742
C          0.95687        0.46333        0.31600
C          1.69745       -0.76390       -0.19328
O          2.57987       -1.32312        0.40551
C         -0.52763        0.27463        0.17062
C         -1.60201        0.80365        1.07029
C         -1.55497       -0.67951        0.74863
C         -1.99140       -0.88021       -0.69561
O         -1.04005        0.11854       -1.16445
H          0.91014        2.60049       -0.09687
H          2.50113        1.85447       -0.35473
H          1.19252        1.60404       -1.53131
H          1.20395        0.57458        1.37659
H          1.36513       -1.11054       -1.19695
H         -1.29058        1.05472        2.07951
H         -2.38495        1.43351        0.65562
H         -1.46236       -1.44776        1.50407
H         -1.74109       -1.86631       -1.10186
H         -3.02352       -0.62072       -0.95792
