19
../xyz/dsC7O2H10nsd_4916.xyz
C         -2.45211       -0.89059       -0.21655
C         -1.34884       -0.52511        0.78520
C         -0.13919        0.21181        0.18963
C          1.18805        0.21882        1.03428
C          1.86872       -0.57277       -0.08392
O          1.11889       -1.78422       -0.28431
C          0.65088       -0.58861       -0.90133
C         -0.48907        1.58984       -0.33435
O          0.20804        2.56965       -0.23984
H         -3.23242       -1.47687        0.27765
H         -2.93648       -0.01306       -0.65529
H         -2.05376       -1.49846       -1.03558
H         -1.76611        0.07373        1.60495
H         -0.96522       -1.44514        1.23606
H          1.57708        1.23273        1.13771
H          1.14368       -0.28054        2.00462
H          2.91079       -0.58794       -0.37894
H          0.50297       -0.59876       -1.97532
H         -1.46663        1.65056       -0.86042
