19

C	3.576998	-0.328926	0.029066
C	2.167364	-0.538192	-0.495997
O	1.285339	0.274215	0.265033
C	-0.067739	0.230032	-0.134672
C	-0.815633	-0.931127	0.581149
C	-2.176174	-1.128151	0.106564
C	-3.295033	-1.284016	-0.301855
C	-0.66557	1.574128	0.265574
O	-1.595506	2.098097	-0.28427
H	3.865297	0.722405	-0.055899
H	3.642717	-0.619228	1.081339
H	4.287192	-0.932904	-0.543123
H	2.101658	-0.260778	-1.559958
H	1.884216	-1.599339	-0.418694
H	-0.169695	0.113196	-1.221938
H	-0.231232	-1.846423	0.429757
H	-0.806228	-0.735975	1.660934
H	-4.286867	-1.412695	-0.658374
H	-0.151006	2.030765	1.140879
