19
../xyz/dsC7O2H10nsd_5869.xyz
O         -4.28284       -0.00407        0.28483
C         -2.89237       -0.00249        0.54765
C         -2.05827       -0.00608       -0.74975
C         -0.62411        0.04136       -0.49877
C          0.55197        0.07630       -0.23369
C          1.96400        0.16870        0.03663
O          2.45308        1.46626        0.26672
C          2.91099       -0.82237       -0.62355
C          2.65026       -0.88904        0.86063
H         -4.51566       -0.86120       -0.08589
H         -2.68731        0.91371        1.10851
H         -2.59110       -0.84918        1.18116
H         -2.30372       -0.90648       -1.33096
H         -2.36956        0.84812       -1.36346
H          2.26666        1.98871       -0.52162
H          2.48702       -1.58760       -1.26301
H          3.86318       -0.41606       -0.94519
H          2.04688       -1.69996        1.24965
H          3.42699       -0.52597        1.52360
