19

C	-0.408909	2.254092	0.045771
C	-0.506543	0.75963	-0.064868
C	0.607579	-0.218963	-0.347973
C	2.038311	0.241255	-0.228267
O	2.837879	-0.903868	0.038555
C	-0.185538	-0.348993	0.933984
C	-1.591344	-0.967158	0.671959
O	-1.724524	-1.293344	-0.721068
C	-1.899792	0.066969	-0.307426
H	-0.52203	2.731918	-0.935579
H	-1.196564	2.651895	0.696928
H	0.550144	2.574203	0.461889
H	0.454642	-0.966792	-1.117767
H	2.346124	0.728849	-1.16731
H	2.143152	0.987092	0.575397
H	3.760322	-0.631743	0.023322
H	0.27482	-0.272692	1.910518
H	-2.214887	-1.508411	1.372964
H	-2.825149	0.56239	-0.579338
