19
../xyz/dsC7O2H10nsd_4468.xyz
C          1.20810       -1.54096        0.90956
C          1.21831       -0.72485       -0.37666
O          1.93329        0.52313       -0.22870
C          1.03798        1.60061        0.10589
C         -0.32030        0.99881       -0.01998
C         -1.51194        1.02974        0.55998
C         -2.27604       -0.21021        0.14790
O         -1.30847       -1.04930       -0.50010
C         -0.18286       -0.25814       -0.83219
H          0.72036       -2.50559        0.74182
H          2.23362       -1.71504        1.24586
H          0.66460       -1.02186        1.70468
H          1.74690       -1.27204       -1.16322
H          1.24249        1.97327        1.11774
H          1.21684        2.42394       -0.59860
H         -1.89777        1.75792        1.26211
H         -2.69343       -0.74842        1.00919
H         -3.11068        0.00689       -0.53935
H         -0.16097       -0.05973       -1.91685
