19
../xyz/dsC7O2H10nsd_3312.xyz
C         -2.86475       -0.52514       -0.66213
C         -1.39469       -0.23064       -0.46314
C         -0.96524        0.85733        0.49014
C          0.27265        1.67868        0.21361
O          1.29491        0.95621       -0.49066
C          1.61436       -0.32056       -0.15145
O          2.55747       -0.84386       -0.67738
C          0.73292       -1.01421        0.87792
C         -0.72113       -0.58422        0.84507
H         -3.02011       -1.55450       -1.00270
H         -3.42362       -0.39661        0.27112
H         -3.30668        0.14404       -1.40827
H         -0.78696       -0.34315       -1.35754
H         -1.74306        1.40104        1.01926
H          0.05507        2.53935       -0.42555
H          0.69274        2.06078        1.15457
H          0.85919       -2.08812        0.71891
H          1.15796       -0.79178        1.86704
H         -1.34835       -1.03734        1.60739
