19

C	-0.348628	2.568153	0.070736
C	0.219884	1.185291	0.092163
C	1.48223	0.834848	-0.199671
C	1.688556	-0.618476	-0.039249
O	2.709748	-1.238646	-0.22973
C	0.351892	-1.206077	0.436635
C	-0.631089	-0.019538	0.472043
C	-1.83316	-0.213989	-0.472545
O	-2.572368	-1.385385	-0.179045
H	-0.816757	2.810755	1.032968
H	0.418882	3.316538	-0.139215
H	-1.134202	2.664485	-0.688481
H	2.278223	1.503425	-0.50488
H	0.020891	-2.002193	-0.235627
H	0.495474	-1.668229	1.417859
H	-1.035599	0.135526	1.484167
H	-2.478302	0.67745	-0.457261
H	-1.47178	-0.340326	-1.499354
H	-2.953978	-1.286456	0.699352
