19

O	-2.048561	0.202031	1.18663
C	-2.104805	-0.350593	-0.114204
C	-0.728099	-0.353985	-0.815737
C	-0.244204	1.061549	-1.000578
C	0.760253	1.614362	-0.320519
C	1.610837	0.884977	0.683585
C	1.381064	-0.609064	0.691579
O	1.585645	-1.288985	-0.552033
C	0.254343	-1.205674	-0.035201
H	-1.652494	1.077656	1.101291
H	-2.464177	-1.378346	0.007341
H	-2.832407	0.178923	-0.749752
H	-0.87608	-0.815654	-1.803706
H	-0.795602	1.662254	-1.721126
H	1.019547	2.654333	-0.504512
H	2.672877	1.087944	0.487571
H	1.421236	1.274485	1.694287
H	1.779343	-1.139016	1.557112
H	-0.145253	-2.156374	0.32117
