19
../xyz/dsC7O2H10nsd_2302.xyz
C         -1.31232        1.66835       -0.70180
C         -0.26558        0.80493       -0.03934
C         -0.23453        0.64763        1.49931
O         -0.25936       -0.79921        1.40299
C         -0.28796       -0.75661       -0.03518
C         -1.33831       -1.63151       -0.66377
C          1.12151       -0.74488       -0.71396
O          2.01383       -0.00330        0.11774
C          1.12821        0.73175       -0.72457
H         -1.33547        1.50800       -1.78570
H         -2.31217        1.45613       -0.31011
H         -1.10696        2.73216       -0.53225
H          0.66282        1.00888        2.00901
H         -1.13326        1.02323        2.00447
H         -1.13932       -2.68195       -0.42281
H         -2.33486       -1.38063       -0.29019
H         -1.33485       -1.52823       -1.75416
H          1.56314       -1.47302       -1.38728
H          1.56905        1.43756       -1.42099
