19
../xyz/dsC7O2H10nsd_2172.xyz
O         -2.10897       -1.07119        0.01578
C         -1.04082       -0.18224        0.06312
C         -1.15336        1.31886       -0.35245
C          0.36257        1.16792       -0.59075
C          0.09649       -0.29654       -1.01260
O          1.21356       -1.10739       -0.70848
C          1.99005       -0.36415        0.24763
C          1.00753        0.69731        0.75312
C         -0.20591       -0.07452        1.35658
H         -2.64458       -0.95359        0.80780
H         -1.70710        1.44936       -1.28521
H         -1.49910        2.03471        0.39819
H          0.93625        1.85694       -1.20810
H         -0.25627       -0.49060       -2.02544
H          2.33464       -1.04455        1.03357
H          2.86905        0.07888       -0.24425
H          1.44987        1.46579        1.38787
H          0.07559       -1.05348        1.75398
H         -0.73442        0.48530        2.13533
