19
../xyz/dsC7O2H10nsd_0676.xyz
O          2.70050        0.00003       -0.85013
C          1.72914        0.00004       -0.14099
C          1.00299       -1.24030        0.39147
C         -0.42883       -0.78827        0.71581
C         -1.47899       -1.12723       -0.36632
O         -2.33266       -0.00014       -0.45184
C         -1.47929        1.12718       -0.36612
C         -0.42889        0.78826        0.71582
C          1.00284        1.24040        0.39122
H          1.06994       -2.06127       -0.32720
H          1.53748       -1.56365        1.29364
H         -0.76135       -1.17154        1.68180
H         -0.98117       -1.30898       -1.33495
H         -2.09252       -1.99948       -0.12801
H         -0.98162        1.30930       -1.33476
H         -2.09304        1.99919       -0.12753
H         -0.76124        1.17149        1.68189
H          1.06960        2.06118       -0.32767
H          1.53738        1.56408        1.29326
