19

O	-2.238217	-0.169291	0.073488
C	-1.030088	-0.515404	-0.565423
C	-0.158956	0.691569	-1.057249
C	-0.065126	1.757265	0.060246
C	0.952334	0.817388	0.739192
O	0.278942	-0.270461	1.409397
C	-0.033802	-1.225901	0.373907
C	1.247589	-1.293088	-0.458814
C	1.294469	0.216964	-0.665638
H	-2.000333	0.094532	0.971346
H	-1.300535	-1.160657	-1.407721
H	-0.382372	1.009176	-2.075909
H	0.419441	2.671618	-0.295306
H	-0.971937	2.020702	0.609583
H	1.716859	1.214671	1.409497
H	-0.401656	-2.136647	0.846984
H	2.097216	-1.68675	0.1053
H	1.126959	-1.862876	-1.384553
H	2.132037	0.661499	-1.19963
