19
../xyz/dsC7O2H10nsd_2922.xyz
O          2.47443       -0.61438       -0.01357
C          1.09938       -0.79181        0.25124
C          0.49235        0.32850        1.09417
C         -1.04100        0.35648        0.94636
C         -1.76380       -0.90753        0.48197
C         -1.15240       -1.19141       -0.92124
C          0.14947       -0.37866       -0.92582
C         -0.16849        0.93130       -0.12636
O         -0.12172        2.23692       -0.57088
H          2.60888        0.31238       -0.24525
H          1.00084       -1.82133        0.61185
H          0.97274        0.81259        1.93766
H         -1.52853        1.04506        1.62885
H         -1.60343       -1.74361        1.17062
H         -2.84502       -0.74651        0.42812
H         -0.97929       -2.25789       -1.09641
H         -1.82326       -0.83611       -1.71221
H          0.65599       -0.28568       -1.88699
H         -0.97367        2.45955       -0.96254
