19

C	2.506513	-0.038734	-0.145006
C	1.708234	-0.44263	1.085173
C	1.022699	0.085862	-0.147882
C	0.245936	1.394182	-0.168915
C	-1.195169	0.912178	-0.310937
O	-1.768723	0.427454	0.92428
C	-1.769074	-0.939012	0.453002
C	-1.063818	-0.532683	-0.859899
O	0.312915	-0.828904	-0.966452
H	3.099205	0.869189	-0.109102
H	2.931728	-0.835159	-0.745356
H	1.618125	-1.504337	1.28436
H	1.752136	0.188285	1.966592
H	0.387852	1.995886	0.73117
H	0.520784	1.995241	-1.043872
H	-1.859235	1.619078	-0.817327
H	-1.197798	-1.609827	1.103308
H	-2.788814	-1.324723	0.328245
H	-1.54944	-0.817008	-1.793853
