19

C	2.96165	-0.212576	0.319584
C	1.646258	-0.269913	-0.456119
O	0.720729	-1.145743	0.215761
C	-0.494782	-0.473035	0.48719
C	-1.639551	-1.132713	-0.283617
O	-2.804746	-0.931899	-0.060624
C	-0.294744	0.956961	0.013594
C	-1.341167	2.00531	0.199174
C	0.911522	1.039375	-0.542612
H	3.694123	0.40413	-0.211785
H	2.801642	0.212129	1.314837
H	3.375874	-1.218614	0.430586
H	1.846568	-0.684257	-1.457383
H	-0.739369	-0.522526	1.559746
H	-1.28827	-1.804522	-1.098928
H	-1.505129	2.206465	1.265232
H	-1.055259	2.942084	-0.285193
H	-2.304792	1.676956	-0.204198
H	1.351629	1.928845	-0.977185
