19
../xyz/dsC7O2H10nsd_4528.xyz
C         -2.63191       -0.59728       -0.02808
C         -1.28589        0.07026        0.03289
C         -1.10416        1.40215        0.04410
C          0.23440        2.08691        0.06282
C          1.37794        1.15982       -0.36861
C          1.25618       -0.18014        0.35634
O          2.29268       -1.05773        0.01632
C         -0.10033       -0.81476        0.05147
O         -0.16614       -2.01639       -0.14744
H         -2.78380       -1.25290        0.83613
H         -3.43846        0.13938       -0.05519
H         -2.70590       -1.23608       -0.91374
H         -1.98042        2.04886        0.03965
H          0.19692        2.97931       -0.57239
H          0.42046        2.46400        1.08106
H          1.33067        0.97917       -1.44906
H          2.35271        1.60808       -0.15609
H          1.25856        0.01844        1.44721
H          1.85949       -1.91708       -0.11421
