19
../xyz/dsC7O2H10nsd_5450.xyz
C          3.14511        0.10413       -0.10303
O          1.99001       -0.68768        0.05549
C          0.82966       -0.09389       -0.47487
C         -0.37466       -0.97434       -0.19348
C         -0.67849       -0.24166        1.10522
C          0.14696        0.94778        0.46848
C         -1.12128        1.37637       -0.32585
C         -1.59201       -0.05578       -0.08517
O         -2.83593       -0.59527       -0.33492
H          3.07458        1.06165        0.43474
H          3.98483       -0.46355        0.30501
H          3.34601        0.32196       -1.16391
H          1.01473        0.23473       -1.51147
H         -0.50247       -2.02669       -0.40988
H         -0.82946       -0.60051        2.11188
H          0.73557        1.67930        1.01690
H         -1.72621        2.09789        0.23396
H         -0.98535        1.72747       -1.35578
H         -3.47665       -0.14435        0.22619
