19

O	2.92319	0.019479	-0.615288
C	1.590822	-0.390539	-0.377485
C	1.336142	-0.456093	1.15278
C	0.283876	0.653279	1.032134
C	0.540774	0.729656	-0.502733
C	-0.756923	0.259971	0.048401
C	-2.127062	0.903015	-0.144971
C	-2.614317	-0.555683	-0.284475
O	-1.274802	-1.069934	-0.107066
H	3.037213	0.114951	-1.566477
H	1.351301	-1.302715	-0.93905
H	0.989924	-1.409124	1.56064
H	2.236258	-0.130505	1.676721
H	0.12001	1.449769	1.750652
H	0.623224	1.587715	-1.163074
H	-2.513899	1.449126	0.717598
H	-2.232678	1.518179	-1.040679
H	-3.291071	-0.906922	0.502698
H	-3.027248	-0.82847	-1.262116
