19
../xyz/dsC7O2H10nsd_2674.xyz
O         -1.23657        1.98148       -0.33822
C         -1.03599        0.78180        0.36541
C         -1.14078       -0.57993       -0.36827
O         -2.28065       -1.28887        0.06524
C          0.22586       -1.01508        0.24270
C          1.39141       -0.70362       -0.68206
C          2.60812       -0.30534        0.10064
C          1.51464        0.70959       -0.08088
C          0.37917        0.42816        0.89429
H         -0.62885        1.99264       -1.08493
H         -1.76327        0.77988        1.18176
H         -1.11428       -0.49592       -1.46591
H         -2.25975       -2.16582       -0.33159
H          0.21966       -1.94705        0.81236
H          1.45471       -1.00230       -1.72350
H          2.79972       -0.73627        1.08080
H          3.50169       -0.13173       -0.49091
H          1.70402        1.65466       -0.57853
H          0.56950        0.61766        1.95324
