19

C	1.829589	1.542715	-0.468247
C	1.097379	0.804088	0.629695
C	1.178979	-0.723733	0.735757
O	1.845459	-1.451438	-0.247134
C	-0.09437	-0.054948	0.326705
O	-0.515047	-0.300346	-1.037996
C	-1.859297	-0.507142	-0.56841
C	-2.404597	0.740373	0.048373
C	-1.49827	-0.171176	0.859008
H	2.84612	1.79506	-0.149904
H	1.905054	0.928733	-1.367333
H	1.315308	2.472162	-0.732649
H	1.048679	1.317137	1.588388
H	1.257655	-1.164949	1.727338
H	1.20926	-1.578061	-0.965672
H	-2.430142	-1.309256	-1.019119
H	-2.050427	1.707388	-0.295995
H	-3.453223	0.700817	0.327441
H	-1.788055	-0.635819	1.791261
