19

C	-2.061492	1.189022	-0.34499
C	-1.311696	-0.085681	-0.031916
O	-1.825334	-0.813945	1.057313
C	-0.795334	-0.965052	-1.161058
C	0.148458	-0.200592	-0.283491
C	1.28267	0.819524	-0.463751
C	2.299034	-0.349194	-0.510823
C	1.298762	-0.594481	0.647067
O	1.431381	0.842395	1.016936
H	-1.985743	1.898201	0.487748
H	-1.657555	1.678703	-1.23593
H	-3.121095	0.974739	-0.516791
H	-1.611037	-0.320899	1.857813
H	-0.86873	-2.037073	-1.009902
H	-0.958739	-0.634045	-2.182136
H	1.292344	1.775932	-0.986738
H	2.266292	-1.024318	-1.368983
H	3.310829	-0.090284	-0.196121
H	1.322643	-1.329823	1.450821
