19

C	-2.724249	0.230073	0.389695
O	-1.812315	-0.43725	-0.46562
C	-0.480346	-0.111691	-0.266419
C	0.072941	1.25753	-0.679157
C	1.347275	1.424594	0.192667
C	1.630922	0.000426	0.665819
O	1.812382	-0.838693	-0.529644
C	0.466352	-1.285906	-0.38876
C	0.263819	-0.652879	0.955511
H	-2.730889	1.315339	0.220074
H	-3.716329	-0.165716	0.161605
H	-2.496125	0.044021	1.448067
H	0.308779	1.277156	-1.746608
H	-0.658999	2.047347	-0.488996
H	2.192226	1.839051	-0.363503
H	1.158686	2.070695	1.058113
H	2.452707	-0.129199	1.372062
H	0.181069	-2.247407	-0.799331
H	-0.151942	-1.016622	1.884496
