19

O	3.504999	0.142083	-0.185913
C	2.127054	0.113489	-0.520465
C	1.228422	-0.048829	0.713418
C	-0.220852	-0.088493	0.361403
O	-0.71509	-1.186677	-0.419477
C	-2.051481	-0.724451	-0.076274
C	-2.201594	0.59011	-0.884678
C	-1.121602	1.129421	0.052571
C	-1.481496	0.107213	1.132981
H	3.747689	-0.732007	0.135492
H	1.916328	1.071279	-1.007094
H	1.90019	-0.678124	-1.248732
H	1.495593	-0.97533	1.23986
H	1.412577	0.779843	1.406306
H	-2.797697	-1.51594	-0.068706
H	-1.997978	0.525444	-1.958226
H	-3.166431	1.070503	-0.702032
H	-0.783787	2.149326	0.187452
H	-1.716468	0.190999	2.185061
