19

C	2.195034	-0.149365	-0.551998
C	0.782173	-0.345986	-0.091337
C	-0.076963	-1.535801	-0.564429
C	-1.386998	-0.945215	-0.007137
C	-1.554352	0.336622	-0.872996
C	-0.326943	0.816001	-0.10418
O	0.062376	2.142038	-0.126904
C	-0.723331	-0.027847	1.130058
O	0.619591	-0.462055	1.365812
H	2.609434	0.789731	-0.17219
H	2.830419	-0.969401	-0.201944
H	2.238188	-0.121561	-1.64504
H	-0.10583	-1.672273	-1.649195
H	0.250127	-2.460469	-0.08305
H	-2.225423	-1.606463	0.19635
H	-1.503465	0.228644	-1.960021
H	-2.432351	0.926857	-0.595922
H	0.721519	2.271137	0.565672
H	-1.290069	0.283483	2.006195
