19
../xyz/dsC7O2H10nsd_3642.xyz
C         -2.88477       -0.91631       -0.60482
C         -1.81976       -0.52050        0.40840
C         -0.40194       -1.18036        0.37578
C          0.26794        0.21930        0.55904
C          1.45274        0.63925       -0.31214
C          2.74715        0.02653        0.17170
O          3.47040       -0.67470       -0.48621
C         -1.10612        0.82841        0.21770
O         -1.44370        1.89761       -0.20126
H         -3.25147       -1.92991       -0.41573
H         -3.73555       -0.23043       -0.55589
H         -2.48802       -0.88354       -1.62454
H         -2.22756       -0.55837        1.42703
H         -0.19219       -1.92685        1.14254
H         -0.17776       -1.60672       -0.60599
H          0.48986        0.40690        1.61841
H          1.29725        0.36545       -1.35946
H          1.54721        1.73293       -0.25404
H          2.99315        0.26933        1.23350
