19
../xyz/dsC7O2H10nsd_5118.xyz
C          2.72098       -0.48709        0.28367
O          1.66051       -0.25361       -0.62567
C          0.49056        0.16292       -0.01364
C          0.32324        1.59615        0.42824
C         -0.49974        1.04935       -0.72573
C         -1.77320        0.22538       -0.44143
C         -1.71014       -0.14939        1.05671
C         -0.50045       -0.91997        0.48356
O         -1.30517       -1.14223       -0.72920
H          2.47779       -1.28193        1.00346
H          3.58395       -0.80090       -0.30780
H          2.97948        0.42189        0.84516
H         -0.12478        1.87398        1.37492
H          1.13480        2.24983        0.12082
H         -0.31352        1.40563       -1.73090
H         -2.69422        0.49362       -0.95752
H         -1.58556        0.60966        1.82931
H         -2.51491       -0.83721        1.31414
H         -0.09328       -1.83186        0.91905
