19
../xyz/dsC7O2H10nsd_1681.xyz
C          0.22936        1.88932       -0.10706
C         -0.11885        0.41577       -0.23798
O          0.99680       -0.22667       -0.92348
C          2.10298       -0.48463       -0.21825
O          2.28477       -0.26148        0.94842
C         -1.48402       -0.06308       -0.80735
C         -1.19706       -1.45260       -0.15864
C         -0.77887       -0.39870        0.91646
C         -2.10874        0.33349        0.56442
H          0.48868        2.29327       -1.09054
H         -0.59287        2.48102        0.29541
H          1.09129        2.00912        0.55334
H          2.84377       -0.94960       -0.88922
H         -1.88110        0.14040       -1.80273
H         -2.07842       -2.04907        0.08644
H         -0.41362       -2.06127       -0.60559
H         -0.35861       -0.58004        1.90353
H         -3.01918       -0.20693        0.83043
H         -2.20135        1.39096        0.80990
