19

C	-2.373552	-0.119649	0.006791
C	-0.883071	-0.361595	0.012339
C	-0.212241	-0.992338	-1.243322
C	1.03659	-0.100693	-1.049703
O	1.878633	-0.593831	0.015081
C	1.033718	-0.006558	1.029542
C	-0.21034	-0.879861	1.318441
C	0.22982	0.782252	-0.034111
O	0.055598	2.146479	0.01982
H	-2.927064	-1.063998	0.075047
H	-2.678335	0.504289	0.854397
H	-2.699065	0.380302	-0.913882
H	-0.043764	-2.072428	-1.249767
H	-0.751931	-0.70363	-2.153338
H	1.614187	0.229	-1.915646
H	1.607306	0.42091	1.853193
H	-0.041999	-1.955007	1.422416
H	-0.742149	-0.505294	2.200174
H	-0.536578	2.415318	-0.69166
