19

O	-2.875502	0.529446	0.000512
C	-2.058867	-0.355726	0.047641
C	-0.571338	-0.172955	-0.008983
C	0.224484	-1.075337	-1.010518
C	1.376848	-1.004457	0.025117
C	0.280057	-0.86127	1.115924
O	2.12748	0.184008	-0.155151
C	1.396779	1.375728	0.142942
C	-0.104687	1.276937	-0.19839
H	-2.374214	-1.422963	0.141953
H	-0.2015	-2.080459	-1.087645
H	0.419816	-0.666873	-2.004513
H	2.09668	-1.822617	0.086078
H	-0.130232	-1.83842	1.384762
H	0.497627	-0.296777	2.02471
H	1.511942	1.608615	1.210727
H	1.882394	2.180079	-0.415823
H	-0.676322	1.951891	0.445874
H	-0.301673	1.582374	-1.231412
