19
../xyz/dsC7O2H10nsd_1295.xyz
C         -2.35623       -0.03542       -1.12651
C         -1.40516        0.28956        0.01927
O         -2.16238        0.16890        1.22213
C         -0.21012       -0.65633        0.05378
C          0.98081       -0.49404       -0.96059
C          1.82180       -1.32931        0.06489
C          1.02343       -0.34156        0.98197
C          1.39257        0.70419       -0.08589
O          1.79651        1.82084       -0.18093
H         -1.85430        0.07189       -2.09228
H         -2.72519       -1.06208       -1.03503
H         -3.21576        0.63909       -1.10260
H         -1.04675        1.32507       -0.09871
H         -1.60364        0.44536        1.95551
H         -0.54391       -1.69474        0.15071
H          0.95898       -0.59386       -2.04349
H          1.51530       -2.37373        0.15318
H          2.90725       -1.22220        0.03348
H          1.05235       -0.27535        2.06817
