19

C	-3.096077	0.42555	2.4e-05
C	-1.5858	0.545472	-9.3e-05
C	-0.799934	-0.495745	0.763735
C	-0.799887	-0.49585	-0.763769
C	0.706648	-0.319325	-0.981321
O	1.275514	-1.278659	9.2e-05
C	0.706592	-0.319205	0.981352
C	1.173166	0.792556	-3.8e-05
O	2.554184	1.014207	-1.5e-05
H	-3.527621	0.902487	0.886283
H	-3.527999	0.9052	-0.884574
H	-3.41042	-0.623405	-0.001499
H	-1.239059	1.57273	-0.000185
H	-1.327441	-1.246909	1.340575
H	-1.327366	-1.247066	-1.340563
H	1.12011	-0.42739	-1.983915
H	1.119993	-0.427147	1.983984
H	0.699692	1.772942	-0.00011
H	2.954285	0.133451	5.2e-05
