19

O	0.868365	2.089339	0.174128
C	0.099194	1.245617	-0.666664
C	-0.463537	0.023867	0.066803
C	0.608134	-0.703744	0.90405
C	1.884053	-0.890425	0.222877
C	2.941478	-0.997377	-0.34064
C	-1.805264	0.2211	0.814301
C	-2.393889	-0.674196	-0.292117
O	-1.096669	-0.851027	-0.902982
H	1.746976	1.698538	0.236574
H	-0.729483	1.846572	-1.05511
H	0.676453	0.880847	-1.525862
H	0.770059	-0.116357	1.816163
H	0.198987	-1.672002	1.212855
H	3.870831	-1.122729	-0.839219
H	-1.837342	-0.20619	1.818488
H	-2.167301	1.249406	0.851965
H	-2.823592	-1.627258	0.037586
H	-3.100166	-0.186372	-0.974277
