19

O	-1.441584	2.064531	-0.329279
C	-1.552881	0.988495	0.581884
C	-0.962715	-0.280319	0.006467
C	-1.401228	-1.637983	0.488454
C	-1.781712	-1.147831	-0.895789
O	0.375219	-0.116729	-0.411796
C	1.328873	-0.12698	0.649536
C	2.669944	-0.017351	0.09349
C	3.785701	0.07575	-0.340161
H	-0.570291	1.981106	-0.735687
H	-1.068181	1.231794	1.542991
H	-2.617484	0.840584	0.790788
H	-0.648052	-2.416006	0.544794
H	-2.166772	-1.694169	1.25521
H	-1.26518	-1.595818	-1.736265
H	-2.808955	-0.85867	-1.086563
H	1.152503	0.704912	1.347437
H	1.236556	-1.056201	1.230896
H	4.77088	0.15737	-0.728292
