19
../xyz/dsC7O2H10nsd_3063.xyz
C         -2.55659       -0.69522       -0.41974
C         -1.10764       -0.25198       -0.56695
C         -0.76206        1.09173        0.12027
C          0.52044        1.71597       -0.43524
C          1.71187        0.74511       -0.20560
C          1.26807       -0.70429        0.00905
O          1.95508       -1.66648       -0.23069
C         -0.15826       -0.79510        0.53560
O         -0.42982        0.37551        1.35062
H         -2.88957       -0.58306        0.61629
H         -3.21304       -0.09327       -1.05738
H         -2.67816       -1.74411       -0.70816
H         -0.76087       -0.36506       -1.59938
H         -1.56968        1.81458        0.26976
H          0.38667        1.93046       -1.50163
H          0.71744        2.67128        0.05986
H          2.45081        0.77441       -1.00905
H          2.23524        1.02884        0.71485
H         -0.37588       -1.74360        1.03115
