19

C	-2.487464	0.211453	-0.102564
C	-1.040878	0.2445	-0.596316
C	-0.123223	1.150422	0.257043
O	1.114247	1.418133	-0.442085
C	1.644159	0.154363	0.021811
C	1.15245	-0.989912	-0.882634
C	-0.305122	-1.106727	-0.377465
O	-0.11774	-1.122277	1.053041
C	0.581984	0.093511	1.166315
H	-3.093019	-0.471691	-0.707407
H	-2.536432	-0.127159	0.936219
H	-2.945097	1.20447	-0.1612
H	-0.993195	0.566766	-1.640426
H	-0.586948	2.054499	0.656562
H	2.716535	0.193919	0.216992
H	1.246104	-0.734054	-1.939984
H	1.692179	-1.920048	-0.680938
H	-0.851762	-2.000349	-0.679426
H	0.848152	0.321135	2.194814
