19
../xyz/dsC7O2H10nsd_1564.xyz
C         -2.05030        1.12818        0.68984
C         -1.25420        0.04176       -0.01265
O         -1.99608       -0.54512       -1.07511
C         -0.53307       -1.06718        0.86452
C          0.69050       -0.98403       -0.12275
O          2.02119       -0.77631        0.31049
C          2.40123        0.55999       -0.06909
C          1.09736        1.27985       -0.38461
C          0.15141        0.35652       -0.49861
H         -2.36769        1.88941       -0.02914
H         -2.94952        0.70379        1.15340
H         -1.46058        1.60688        1.47584
H         -2.79038       -0.93458       -0.69264
H         -0.26557       -0.69873        1.85678
H         -1.05731       -2.02469        0.93177
H          0.64656       -1.77538       -0.88015
H          2.92654        1.03242        0.77179
H          3.10423        0.52459       -0.91704
H          0.99522        2.35722       -0.35358
