19
../xyz/dsC7O2H10nsd_0330.xyz
C          2.24287       -0.07691        0.20331
C          1.19517        0.84359       -0.38591
C          0.19239        1.48721        0.54926
O         -1.16456        1.49658        0.10609
C         -1.67196        0.39753       -0.61751
C         -1.33199       -1.01213       -0.12547
O         -0.58598       -1.16113        1.08491
C          0.05153       -1.51350       -0.14957
C          1.15276       -0.64420       -0.66656
H          3.25307       -0.04450       -0.18878
H          2.17631       -0.26723        1.26956
H          1.50683        1.46078       -1.22356
H          0.24556        1.00815        1.53023
H          0.44734        2.54551        0.67515
H         -2.75897        0.52600       -0.58617
H         -1.37446        0.45178       -1.67879
H         -2.14458       -1.73222       -0.23763
H          0.21359       -2.58657       -0.26305
H          1.45502       -0.93485       -1.67030
