19

C	3.056792	0.553149	-6.5e-05
C	1.718914	-0.145831	4.4e-05
O	1.549003	-1.337142	-8e-06
O	0.712861	0.76518	0.000187
C	-0.606017	0.273933	5.4e-05
C	-1.310367	-0.586776	1.082973
C	-2.378905	-0.249156	-7.8e-05
C	-1.828415	1.211196	-0.000316
C	-1.310102	-0.587164	-1.082735
H	3.854101	-0.188972	0.000325
H	3.143418	1.195696	-0.880883
H	3.143197	1.196457	0.880214
H	-0.991191	-1.626079	1.159034
H	-1.446127	-0.119544	2.061901
H	-3.423304	-0.54915	-0.00015
H	-1.994824	1.798781	-0.906657
H	-1.995072	1.799159	0.905732
H	-0.990899	-1.626485	-1.158345
H	-1.445618	-0.120277	-2.061864
