19
../xyz/dsC7O2H10nsd_1533.xyz
C          2.02865       -0.41429        1.17791
C          1.16545       -0.23766       -0.06520
O          1.94332       -0.04403       -1.23385
C          0.05477       -1.31458       -0.29840
C         -1.02488       -0.24451       -0.04964
C         -2.28622       -0.31727        0.78950
C         -2.38777       -0.05925       -0.67842
C          0.02495        0.81314        0.07816
O          0.02218        2.01020        0.18285
H          1.41828       -0.61225        2.06504
H          2.72084       -1.24966        1.03415
H          2.61113        0.49387        1.36793
H          2.33334        0.83647       -1.17610
H          0.07882       -1.69817       -1.31997
H          0.07013       -2.14665        0.40902
H         -2.56528       -1.29704        1.16296
H         -2.46674        0.50480        1.47408
H         -2.74156       -0.85818       -1.32129
H         -2.63259        0.94394       -1.01120
