19

C	2.310325	-0.407031	0.380236
O	1.962363	0.188527	-0.873649
C	0.918911	-0.03591	0.097682
C	0.315085	1.234949	0.666146
C	-0.917743	1.612628	-0.156912
O	-1.922091	0.611098	-0.04099
C	-1.527134	-0.665775	-0.458513
C	-1.121882	-1.640907	0.612337
C	-0.077059	-1.072579	-0.330608
H	2.609493	-1.453884	0.334219
H	2.912675	0.215045	1.042573
H	0.01201	1.090515	1.709869
H	1.067143	2.028935	0.634695
H	-1.376201	2.534193	0.210839
H	-0.634938	1.763778	-1.209603
H	-2.093484	-1.026342	-1.314204
H	-1.153714	-1.267458	1.629894
H	-1.381739	-2.687959	0.502849
H	0.313561	-1.746074	-1.086225
