19
../xyz/dsC7O2H10nsd_5090.xyz
C          2.77446       -0.38562       -0.72262
C          1.45295       -0.08646       -0.09941
O          1.26831       -0.33765        1.30448
C          0.33915       -0.90837        0.36760
C         -0.69965        0.17476       -0.07436
C         -1.97526       -0.16504       -0.77893
O         -2.93704       -0.75497        0.08763
C         -0.41727        1.49278        0.60737
C          0.46178        1.05004       -0.53326
H          3.50152        0.40056       -0.48861
H          3.16410       -1.33686       -0.35101
H          2.68306       -0.44380       -1.81227
H          0.18122       -1.98020        0.40178
H         -2.37237        0.73632       -1.27371
H         -1.79923       -0.91169       -1.56253
H         -3.04127       -0.16345        0.84065
H         -1.11048        2.29077        0.35632
H         -0.02441        1.51655        1.61573
H          0.55070        1.60021       -1.46156
