19
../xyz/dsC7O2H10nsd_0821.xyz
O         -3.07245       -0.86819       -0.74440
C         -2.80329        0.17035       -0.19345
C         -1.55940        0.41347        0.61287
C         -0.43175        1.22558       -0.11919
C          0.60631        0.22742        0.47349
C         -0.55953       -0.75152        0.79381
C          1.70789       -0.25839       -0.42174
C          3.00640       -0.70573        0.09915
O          2.87037        0.57071       -0.52630
H         -3.47447        1.05559       -0.28868
H         -1.83060        0.90423        1.55394
H         -0.50853        1.13050       -1.20689
H         -0.32266        2.28057        0.13605
H          1.04454        0.63493        1.38961
H         -0.70759       -1.49860        0.00874
H         -0.54067       -1.25646        1.76118
H          1.37749       -0.67484       -1.37638
H          3.19024       -0.68256        1.17290
H          3.58906       -1.44067       -0.45452
