19
../xyz/dsC7O2H10nsd_2413.xyz
C          1.93858       -0.96512        0.88501
C          0.84474       -0.33170        0.04870
O          1.40788        0.55494       -0.98012
C          0.45024        1.59034       -0.67930
C          0.05839        0.87012        0.63217
O         -1.27504        0.68915        1.01639
C         -2.09307       -0.03356        0.11099
C         -1.40233       -1.17963       -0.56850
C         -0.08045       -1.33076       -0.58383
H          1.50427       -1.52067        1.72279
H          2.52806       -1.66378        0.28156
H          2.61306       -0.19903        1.27754
H          0.92182        2.57416       -0.58968
H         -0.35472        1.64178       -1.42458
H          0.55669        1.30530        1.50124
H         -2.94136       -0.39645        0.70348
H         -2.51642        0.64302       -0.65236
H         -2.05134       -1.88640       -1.08010
H          0.38051       -2.16877       -1.10140
