19

O	-2.734485	-0.618033	0.383222
C	-1.802835	-0.169655	-0.594397
C	-0.482551	0.227772	0.004698
C	-0.200908	1.644739	0.453922
C	0.563018	1.064838	-0.712058
C	1.783608	0.156344	-0.454901
C	1.725289	-0.223433	1.040681
C	0.454216	-0.90442	0.491412
O	1.220044	-1.176712	-0.739615
H	-2.84402	0.094305	1.022076
H	-1.65831	-1.016187	-1.273901
H	-2.212456	0.664099	-1.187339
H	-0.959664	2.377338	0.188094
H	0.285167	1.860784	1.397379
H	0.402343	1.452111	-1.71142
H	2.709908	0.366115	-0.988478
H	2.485404	-0.967727	1.27447
H	1.675308	0.536411	1.820952
H	-0.007177	-1.786391	0.93318
