19
../xyz/dsC7O2H10nsd_0601.xyz
C         -0.82466       -0.98125       -1.05968
O         -0.96648        0.41720       -1.27912
C         -0.62574        1.21046       -0.13708
C         -1.12254        0.51605        1.13409
O         -0.48227       -0.73950        1.33493
C          0.05620       -1.31380        0.14396
C          1.53624       -0.91812       -0.01733
C          1.79722        0.56306       -0.05203
C          0.86202        1.50945       -0.08745
H         -1.81573       -1.43152       -0.89640
H         -0.40346       -1.42386       -1.97040
H         -1.18099        2.14590       -0.25958
H         -0.91774        1.13310        2.01570
H         -2.21210        0.37848        1.05646
H          0.01211       -2.40015        0.28925
H          2.09342       -1.35156        0.82410
H          1.94403       -1.39854       -0.91960
H          2.84539        0.85515       -0.03825
H          1.15263        2.55627       -0.09464
