19
../xyz/dsC7O2H10nsd_4460.xyz
C         -1.85860        1.29688        0.19394
C         -1.19053        0.18167       -0.60506
O         -1.37293       -1.12086       -0.00373
C         -0.28066       -1.41034        0.89299
C          0.90528       -0.67365        0.32347
C          1.18674       -0.78409       -1.16448
C          0.31686        0.31582       -0.66119
O          1.06154        1.43040       -0.14754
C          1.60740        0.56576        0.89192
H         -1.72860        2.25995       -0.30825
H         -2.92708        1.08846        0.28955
H         -1.42891        1.38367        1.19581
H         -1.65599        0.10102       -1.59354
H         -0.49157       -1.05699        1.91396
H         -0.19271       -2.50068        0.91936
H          2.17620       -0.53725       -1.53478
H          0.68292       -1.59883       -1.67302
H          2.70303        0.57228        0.89137
H          1.23485        0.85973        1.88018
