19
../xyz/dsC7O2H10nsd_1083.xyz
C         -2.36955        1.24891       -0.00017
C         -1.75206       -0.12944       -0.00010
O         -2.38838       -1.15865        0.00007
C         -0.24886       -0.18301        0.00002
C          0.70203       -0.74476       -1.08996
C          1.54372       -0.02772        0.00005
C          2.99000        0.35282       -0.00024
C          0.70177       -0.74174        1.09184
O          0.53249        1.07442       -0.00160
H         -2.02474        1.80961       -0.87582
H         -3.45714        1.17106        0.00110
H         -2.02259        1.81094        0.87375
H          0.78412       -1.82962       -1.18117
H          0.65193       -0.23111       -2.05107
H          3.23122        0.94242       -0.88974
H          3.23039        0.94645        0.88680
H          3.61654       -0.54452        0.00209
H          0.78382       -1.82635        1.18606
H          0.65142       -0.22544        2.05152
