19
../xyz/dsC7O2H10nsd_3746.xyz
O          2.24962       -0.78731       -0.90693
C          1.73520        0.37916       -0.32938
C          1.55489        0.45241        1.16624
C          0.35311        0.30127        0.25703
C         -0.67564        1.41955        0.06636
C         -1.81377        0.78285       -0.77366
C         -1.72054       -0.69788       -0.45403
O         -1.61625       -0.98260        0.94846
C         -0.41509       -0.98234        0.15400
H          3.18126       -0.84974       -0.67176
H          1.99674        1.30031       -0.85262
H          1.85457       -0.41933        1.73937
H          1.70994        1.40346        1.66605
H         -1.06383        1.72346        1.04225
H         -0.24823        2.30659       -0.40960
H         -2.79445        1.20804       -0.54004
H         -1.64104        0.91953       -1.84803
H         -2.27019       -1.43080       -1.03959
H          0.09932       -1.93244        0.06235
