19

C	3.006929	-0.275013	-0.155807
O	1.688976	-0.661132	0.178934
C	0.883708	0.403455	0.583756
C	0.278298	1.350079	-0.587411
C	-0.973913	0.490494	-0.399604
C	-1.042512	-0.992975	-0.871124
C	-1.757448	-0.839753	0.46661
O	-2.433674	0.417941	-0.082478
C	-0.608538	0.075226	1.003452
H	3.506529	0.217227	0.692334
H	3.55288	-1.185503	-0.411774
H	3.030226	0.408564	-1.016508
H	1.392465	0.986351	1.364424
H	0.175225	2.375454	-0.224836
H	0.76551	1.342195	-1.566252
H	-1.696973	-1.162336	-1.726186
H	-0.115068	-1.561522	-0.899062
H	-2.431189	-1.513893	1.001288
H	-0.941161	0.769915	1.77571
