19
../xyz/dsC7O2H10nsd_3076.xyz
C         -2.71392        0.02420       -0.49638
C         -1.25097        0.43647       -0.40329
C         -0.63435        0.37886        1.01830
O         -0.55273       -1.09309        0.85702
C         -0.22857       -0.72124       -0.53508
C          1.17093       -0.09932       -0.33648
O          2.27828       -0.92979       -0.42653
C          1.35997        1.37641       -0.44282
C          0.84048        0.78395        0.86138
H         -2.90272       -0.87917        0.08686
H         -3.36316        0.82270       -0.12091
H         -2.99657       -0.16725       -1.53717
H         -1.07660        1.33725       -0.99401
H         -1.17252        0.68598        1.91559
H         -0.32280       -1.54058       -1.24900
H          2.14301       -1.64852        0.20350
H          2.39938        1.68737       -0.39520
H          0.74928        2.00002       -1.08478
H          1.47693        0.80931        1.73749
