19
../xyz/dsC7O2H10nsd_1496.xyz
C          2.09493       -0.34712       -0.76106
C          0.82217       -0.33674        0.07540
O          1.23374       -0.47912        1.45490
C         -0.12018       -1.45646       -0.29924
C         -1.44219       -1.31534       -0.41400
C         -2.17552       -0.01752       -0.20768
C         -1.31403        1.02365        0.53583
C          0.09505        1.02477       -0.02862
O          0.61036        2.00119       -0.51670
H          1.86644       -0.20119       -1.81968
H          2.75428        0.46102       -0.43978
H          2.61008       -1.30285       -0.63253
H          0.53421       -0.94904        1.92023
H          0.34434       -2.42654       -0.46402
H         -2.04677       -2.17795       -0.68554
H         -2.47886        0.38523       -1.18439
H         -3.10923       -0.19655        0.33821
H         -1.73227        2.02916        0.46185
H         -1.25643        0.75062        1.59631
