19

O	-3.070327	-0.085621	-0.095697
C	-1.733487	0.345452	-0.020872
C	-0.819341	-0.225083	1.098586
C	0.297478	-0.383357	0.028333
C	1.430693	-1.446067	0.058985
C	2.514788	-0.328103	-0.041052
C	1.375412	0.70541	-0.015071
O	1.329153	1.903603	-0.011028
C	-0.808908	-0.306587	-1.064749
H	-3.59389	0.43533	0.521212
H	-1.652855	1.439133	-0.061484
H	-0.60235	0.400409	1.968105
H	-1.186624	-1.203763	1.422494
H	1.46851	-2.020291	0.98748
H	1.414987	-2.143551	-0.781272
H	3.213972	-0.246542	0.796008
H	3.092858	-0.311226	-0.969905
H	-0.590618	0.244633	-1.981863
H	-1.174416	-1.307976	-1.311933
