19
../xyz/dsC7O2H10nsd_1033.xyz
C         -4.11310        0.00156       -0.20999
C         -2.67790       -0.00477        0.03065
C         -1.49083       -0.02467        0.22680
C         -0.05431       -0.00371        0.46539
C          0.62825        1.26084       -0.09275
C          2.14274        1.11980        0.07613
O          2.59688       -0.10480       -0.48427
C          1.92355       -1.19475        0.08450
O          0.53723       -1.16230       -0.13567
H         -4.40018       -0.81840       -0.87726
H         -4.67561       -0.11675        0.72251
H         -4.43506        0.93808       -0.67832
H          0.13220       -0.04615        1.55447
H          0.37789        1.35141       -1.15365
H          0.25910        2.15021        0.42790
H          2.68168        1.91947       -0.43812
H          2.40950        1.16219        1.14664
H          2.29962       -2.09641       -0.40226
H          2.12755       -1.23273        1.17332
