19

C	-1.14939	-0.168069	1.128541
O	-2.445529	0.011115	0.523005
C	-1.877763	0.011615	-0.803014
C	-0.445866	0.03573	-0.242267
C	0.322022	1.345711	-0.405971
C	1.718942	1.200175	0.137509
C	2.259595	0.000253	0.332155
C	1.527817	-1.266584	-0.006759
O	0.318843	-1.053013	-0.718485
H	-0.951302	0.573397	1.910849
H	-1.022503	-1.17887	1.538049
H	-2.09983	-0.908935	-1.356278
H	-2.193456	0.883777	-1.387626
H	0.3509	1.618169	-1.470667
H	-0.213312	2.156064	0.103129
H	2.274043	2.103897	0.372545
H	3.256375	-0.113648	0.749595
H	2.143789	-1.905256	-0.651303
H	1.336646	-1.846391	0.91439
