19
../xyz/dsC7O2H10nsd_4332.xyz
C          2.03935       -1.02939       -0.50372
C          0.68011       -0.51756       -0.09143
O          0.20327       -0.96703        1.18713
C         -0.48195       -1.42180       -0.00892
C         -1.84710       -0.89559       -0.25547
C         -2.08715        0.41530       -0.22233
C         -0.99597        1.40584        0.08483
C          0.39962        0.95199       -0.38606
O          1.41418        1.79208        0.15447
H          2.82677       -0.42739       -0.04244
H          2.16381       -2.07113       -0.19895
H          2.16371       -0.96206       -1.58994
H         -0.31766       -2.47803       -0.21639
H         -2.63640       -1.61192       -0.46009
H         -3.09172        0.79554       -0.38397
H         -1.21294        2.38422       -0.35393
H         -0.95159        1.55800        1.17232
H          0.47448        1.08871       -1.47222
H          1.40043        1.67091        1.11138
