19

O	1.571909	1.540042	-0.082084
C	0.500926	0.629169	0.024151
C	-0.833754	1.370677	0.115151
O	-1.925338	0.579804	-0.30889
C	-1.835129	-0.757567	0.152431
C	-0.414633	-1.289563	0.051133
C	0.687709	-0.628079	0.934023
C	1.72887	-1.144653	-0.097794
C	0.556716	-0.582183	-0.953258
H	1.59864	2.069639	0.722134
H	-0.98614	1.735901	1.149045
H	-0.802455	2.241106	-0.54699
H	-2.195911	-0.840295	1.193548
H	-2.516341	-1.338114	-0.478419
H	-0.381783	-2.382628	0.034459
H	0.751923	-0.6487	2.024827
H	2.672695	-0.60554	-0.152794
H	1.868355	-2.228557	-0.133094
H	0.474229	-0.548379	-2.039945
