19

O	1.292294	1.486314	0.009939
C	1.262611	0.079342	0.008103
C	2.311809	-0.690676	-0.749453
C	2.307257	-0.691496	0.773447
C	-0.153679	-0.405914	-0.002361
C	-1.187902	0.388255	0.779973
C	-2.538801	-0.302731	0.646063
O	-2.423057	-0.338736	-0.805317
C	-1.194791	0.392207	-0.730455
H	2.207208	1.777778	-0.038512
H	2.021789	-1.595835	-1.2722
H	3.08983	-0.122079	-1.250568
H	2.014476	-1.598091	1.292197
H	3.080992	-0.12162	1.27929
H	-0.250429	-1.489346	-0.036336
H	-0.920655	1.169784	1.475904
H	-2.649707	-1.304257	1.080251
H	-3.386095	0.325134	0.945187
H	-1.000328	1.163995	-1.464088
