19
../xyz/dsC7O2H10nsd_4388.xyz
C         -0.58985        2.15171        0.12559
C         -0.34681        0.67839        0.13827
C          0.80669       -0.01272        0.03943
C          0.59118       -1.50760        0.15791
C         -0.93399       -1.65535       -0.02566
C         -1.52012       -0.27400        0.34104
O         -2.69676        0.08646       -0.36503
C          2.14876        0.54788       -0.12255
O          3.15675       -0.12698       -0.16636
H         -1.40222        2.38953       -0.56876
H         -0.93159        2.48487        1.11453
H          0.29181        2.73488       -0.14400
H          1.17937       -2.06909       -0.57277
H          0.91537       -1.85952        1.14538
H         -1.16230       -1.84974       -1.08140
H         -1.37298       -2.46919        0.55508
H         -1.82305       -0.24097        1.39762
H         -2.51605       -0.02013       -1.30608
H          2.20652        1.65359       -0.21266
