19

C	-3.411437	-0.405316	0.000461
C	-1.930663	-0.7726	-0.000601
C	-1.004508	0.434733	-0.000199
O	-1.430477	1.572575	-4.2e-05
C	0.457279	0.157897	-5e-06
C	1.407056	1.096444	-8.3e-05
C	2.760092	0.461356	0.000237
O	2.518224	-0.942759	-0.000404
C	1.117049	-1.202734	0.000409
H	-3.663752	0.19036	0.881297
H	-3.663975	0.194079	-0.87776
H	-4.03311	-1.304776	-0.001276
H	-1.673482	-1.393502	0.86975
H	-1.674421	-1.39173	-0.872528
H	1.227978	2.163681	-0.000224
H	3.353315	0.744522	-0.884236
H	3.352474	0.744077	0.885454
H	0.851586	-1.802504	-0.884235
H	0.852204	-1.801416	0.886015
