19
../xyz/dsC7O2H10nsd_2532.xyz
C          2.97314       -0.87250       -0.03320
C          1.61308       -0.25194        0.00232
C          0.47435       -0.82421        0.39852
C         -0.72873        0.09414        0.28846
O         -1.52092        0.12183        1.44998
C         -0.06755        1.47668       -0.01542
C          1.38520        1.17693       -0.44765
C         -1.59133       -0.35408       -0.88308
O         -2.74843       -0.67337       -0.75205
H          3.38182       -0.86880       -1.05173
H          3.67812       -0.30275        0.58527
H          2.95858       -1.90496        0.32465
H          0.36500       -1.84183        0.75677
H         -2.40065       -0.18389        1.17625
H         -0.62234        2.06543       -0.75208
H         -0.09384        2.02562        0.92863
H          1.51300        1.26174       -1.53549
H          2.11184        1.86931       -0.00522
H         -1.08572       -0.37763       -1.87013
