19

C	2.559012	-0.752379	0.272013
C	1.251362	0.02371	0.480831
C	1.52128	1.523367	0.661381
C	0.280779	-0.243527	-0.687798
O	0.085505	-1.646742	-0.774498
C	-1.057729	0.474361	-0.47808
O	-1.343157	1.502033	-1.054187
C	-1.975973	-0.155736	0.457905
C	-2.748134	-0.643	1.242572
H	3.088169	-0.389756	-0.617353
H	3.221887	-0.615185	1.132156
H	2.369737	-1.819334	0.144591
H	0.762606	-0.361378	1.385601
H	0.609025	2.094512	0.853124
H	2.200103	1.682706	1.504527
H	1.994815	1.947124	-0.231482
H	0.707342	0.167873	-1.614709
H	-0.445256	-1.836517	-1.554672
H	-3.430793	-1.073151	1.934751
