19

O	-0.916258	1.913081	0.079078
C	-0.992752	0.657576	0.677332
C	0.246628	-0.330045	0.718986
C	-0.738129	-1.52058	0.447487
C	-1.713339	-0.45965	-0.075201
O	-2.501631	-0.411366	-0.979117
C	1.247576	-0.102461	-0.383415
C	2.446773	0.776876	-0.150494
C	2.625078	-0.714329	-0.297175
H	-1.328414	1.839777	-0.790743
H	-1.392751	0.756625	1.696002
H	0.746283	-0.362057	1.689754
H	-0.429916	-2.285569	-0.267367
H	-1.094076	-1.99973	1.363817
H	0.814455	-0.055325	-1.380376
H	2.777258	1.420177	-0.957905
H	2.571016	1.208688	0.836949
H	3.077877	-1.093669	-1.20646
H	2.870371	-1.286947	0.591514
