19
../xyz/dsC7O2H10nsd_3408.xyz
O         -3.01221       -0.17073       -0.20055
C         -1.74530        0.01112        0.35701
C         -0.67412        0.77555       -0.40354
C          0.38729        1.56492        0.34896
C          1.80476        1.21861       -0.06338
C          2.30356       -0.00569       -0.23243
C          1.61964       -1.33495       -0.04428
O          0.32914       -1.29445        0.54497
C         -0.63085       -0.73338       -0.29366
H         -3.48652        0.66489       -0.13535
H         -1.70608        0.07473        1.44518
H         -0.96814        1.16517       -1.37418
H          0.21742        2.63661        0.19963
H          0.27510        1.39351        1.42668
H          2.47486        2.06067       -0.22202
H          3.34469       -0.10350       -0.53914
H          1.57777       -1.86598       -1.01250
H          2.22733       -1.96055        0.62174
H         -0.88178       -1.32130       -1.17736
