19

C	-2.685849	-0.611867	-0.421202
C	-1.29516	-0.395685	0.104335
C	-0.339211	-1.327953	0.043509
C	1.042756	-1.076183	0.539797
O	2.09859	-1.005668	-0.433225
C	1.70617	0.202179	0.226958
C	0.976189	1.204139	-0.653839
O	-0.149234	1.817698	-0.043197
C	-0.992206	0.962312	0.728475
H	-2.807443	-1.607102	-0.856558
H	-3.433336	-0.491214	0.373325
H	-2.926903	0.133429	-1.189832
H	-0.543208	-2.307941	-0.382986
H	1.342297	-1.606839	1.445718
H	2.441516	0.593621	0.929246
H	1.636812	2.030547	-0.933701
H	0.690795	0.672794	-1.570435
H	-0.555101	0.813108	1.726134
H	-1.916417	1.531714	0.862268
