19

O	2.328708	-1.364423	0.291047
C	1.461112	-0.596931	-0.048877
C	1.679418	0.919676	-0.038753
O	0.546384	1.655828	0.379622
C	-0.620675	1.341038	-0.365995
C	-1.010922	-0.10765	-0.169824
C	-1.858973	-0.460809	1.026007
C	-2.445743	-0.51746	-0.36559
C	0.108932	-1.050171	-0.587191
H	2.499389	1.155557	0.642043
H	1.983847	1.215201	-1.06144
H	-1.403455	2.014851	-0.006643
H	-0.453539	1.552114	-1.43751
H	-1.660466	-1.398785	1.533537
H	-2.174173	0.341432	1.684636
H	-2.640801	-1.491971	-0.801144
H	-3.163129	0.245607	-0.650631
H	-0.066916	-2.084797	-0.281582
H	0.199614	-1.046613	-1.68527
