19
../xyz/dsC7O2H10nsd_3947.xyz
C          2.51390        0.07517       -0.34753
C          1.21594       -0.70944       -0.24028
C          0.59897       -0.86774        1.21652
C         -0.64407       -0.07794        0.73190
C         -0.69733        1.46400        0.72755
O         -0.12118        1.48922       -0.62847
C         -0.09136        0.04729       -0.64386
C         -1.36678       -0.69217       -1.09938
O         -1.82080       -0.78996        0.29841
H          3.32327       -0.44748        0.17283
H          2.81077        0.20593       -1.39324
H          2.40933        1.07188        0.09072
H          1.30971       -1.66848       -0.75866
H          0.37027       -1.89423        1.50725
H          1.17544       -0.38960        2.01357
H         -1.70564        1.88937        0.75003
H         -0.05207        1.98331        1.44529
H         -2.05118       -0.09580       -1.71122
H         -1.22974       -1.68400       -1.54558
