19
../xyz/dsC7O2H10nsd_0173.xyz
C         -1.85479       -0.11645        0.54360
C         -0.94576        1.03807        0.05016
O         -0.87394        0.34007       -1.23059
C         -0.97668       -0.89522       -0.46667
C          0.46168       -1.19399        0.11506
C          0.65621       -0.36541        1.39107
C          0.49031        0.99647        0.68354
C          1.52162        0.78020       -0.44783
O          1.44549       -0.63069       -0.75363
H         -1.90579       -0.39821        1.59473
H         -2.86068        0.01063        0.14196
H         -1.34816        2.04825       -0.05309
H         -1.39349       -1.71503       -1.05505
H          0.65754       -2.26466        0.20381
H         -0.04768       -0.55889        2.19769
H          1.66960       -0.50021        1.78008
H          0.70088        1.87117        1.30194
H          1.30335        1.35529       -1.35017
H          2.53659        1.01468       -0.10164
