19

C	-0.915477	1.989829	-0.32693
C	-0.266305	0.638585	-0.209286
C	1.260148	0.448973	-0.58627
C	1.346	-1.083591	-0.739184
C	0.213914	-1.335171	0.273718
C	-0.989867	-0.695438	-0.467289
O	-2.198396	-0.675693	0.269418
C	0.355473	0.044531	1.08334
O	1.641613	0.61231	0.812425
H	-0.293874	2.757759	0.144764
H	-1.061699	2.271532	-1.376385
H	-1.894553	1.986199	0.160313
H	1.796272	1.107139	-1.26967
H	1.112638	-1.458013	-1.740358
H	2.327542	-1.446426	-0.428741
H	0.134058	-2.30714	0.758995
H	-1.159002	-1.016943	-1.505666
H	-2.52522	-1.57875	0.329532
H	-0.005223	0.145395	2.103881
