19

C	1.799456	-1.296165	-0.395601
C	0.523594	-0.552286	-0.095913
C	-0.360764	-1.073182	1.075694
C	-1.761517	-0.515554	0.690547
C	-1.43137	0.251429	-0.610995
C	-0.672157	1.551681	-0.286885
C	0.677701	0.962165	0.151306
O	1.633726	1.536643	0.598769
O	-0.397825	-0.555249	-1.202194
H	2.249315	-0.925679	-1.320479
H	2.513684	-1.134406	0.416317
H	1.614394	-2.368601	-0.500368
H	-0.348545	-2.165992	1.078066
H	-0.005626	-0.729427	2.050642
H	-2.467979	-1.32336	0.488861
H	-2.196987	0.129516	1.457873
H	-2.255202	0.356606	-1.316076
H	-0.532239	2.158216	-1.187335
H	-1.107686	2.183457	0.490985
