19

C	-2.52956	-1.661147	-0.105191
C	-1.776249	-0.414729	0.393043
C	-2.308038	0.870084	-0.287068
O	-1.666609	2.038922	0.168175
C	-0.335148	-0.518982	0.169598
C	0.851955	-0.543781	-0.04352
C	2.263651	-0.599482	-0.313075
C	3.258582	-0.045098	0.626822
O	2.932786	0.647842	-0.571159
H	-2.389808	-1.795941	-1.181986
H	-2.171318	-2.562741	0.397574
H	-3.601092	-1.559654	0.093485
H	-1.949652	-0.29979	1.471349
H	-2.223992	0.753862	-1.379444
H	-3.36939	0.98421	-0.043276
H	-0.725909	1.942093	-0.023854
H	2.585613	-1.410469	-0.965513
H	2.910271	0.417531	1.548143
H	4.254705	-0.48441	0.663734
