19

O	2.92448	-0.099241	0.279826
C	1.740095	-0.04264	0.089691
C	0.981308	1.280183	0.049203
C	-0.387577	1.233791	-0.639653
C	-1.117608	-0.002596	-0.164925
C	-1.913336	0.04926	1.117185
C	-2.617914	-0.094504	-0.211695
C	-0.323069	-1.240596	-0.483988
O	1.037465	-1.198938	-0.011747
H	0.85254	1.569202	1.10019
H	1.653501	2.017963	-0.394204
H	-0.955578	2.143634	-0.420276
H	-0.261742	1.192545	-1.729754
H	-1.88582	-0.811005	1.777497
H	-1.986859	1.001779	1.631722
H	-3.069471	-1.052529	-0.448962
H	-3.163695	0.759343	-0.598887
H	-0.760865	-2.132077	-0.026417
H	-0.288973	-1.40081	-1.570453
