19
../xyz/dsC7O2H10nsd_2181.xyz
C          2.37031       -0.13623       -0.06834
C          0.88126       -0.32329        0.01422
C          0.21991       -0.98984        1.24993
C         -1.05275       -0.12253        1.04117
C         -1.90849       -0.60902       -0.15999
C         -0.85884       -0.02905       -1.13570
O          0.31711       -0.86287       -1.21169
C         -0.23651        0.78434        0.05165
O         -0.10860        2.14300        0.22342
H          2.64080        0.47932       -0.93254
H          2.75324        0.34233        0.83814
H          2.86998       -1.10528       -0.18000
H          0.11092       -2.07707        1.21478
H          0.74154       -0.70418        2.16926
H         -1.56596        0.25883        1.92256
H         -2.12082       -1.67793       -0.24474
H         -2.84334       -0.04265       -0.22525
H         -1.16809        0.34120       -2.11587
H          0.42417        2.49803       -0.49787
