19
../xyz/dsC7O2H10nsd_0950.xyz
O          3.46003       -0.39702       -0.27026
C          2.54073        0.07322        0.34752
C          1.28402        0.65016       -0.25880
C          0.01653        0.01896        0.32532
C         -0.36396       -1.39324       -0.15000
C         -1.87716       -1.49094        0.14523
C         -2.41770       -0.09223       -0.19557
C         -1.24317        0.85889        0.04544
O         -1.27658        2.06165        0.01069
H          2.56102        0.11234        1.46397
H          1.25275        1.72479       -0.02756
H          1.32672        0.53597       -1.34597
H          0.10334        0.00668        1.42521
H         -0.18481       -1.47676       -1.22935
H          0.21500       -2.18263        0.33559
H         -2.36482       -2.28794       -0.42030
H         -2.03365       -1.70515        1.20871
H         -2.68038       -0.01397       -1.25879
H         -3.29842        0.22079        0.37026
