19
../xyz/dsC7O2H10nsd_1572.xyz
C         -2.22016       -0.49930       -0.24624
C         -0.74514       -0.38408        0.09997
O         -0.61185       -0.69065        1.49547
C          0.13873       -1.33352       -0.73432
C          1.60762       -1.10202       -0.47653
C          2.09459        0.04299        0.00574
C          1.23913        1.24642        0.31564
C         -0.21842        1.05234       -0.09537
O         -0.89168        1.95396       -0.53108
H         -2.81077        0.14003        0.41308
H         -2.40087       -0.18200       -1.27541
H         -2.55139       -1.53386       -0.12165
H          0.30753       -0.93476        1.65554
H         -0.13849       -2.36485       -0.48238
H         -0.08448       -1.20881       -1.80306
H          2.28567       -1.92141       -0.70043
H          3.16296        0.14939        0.17655
H          1.26474        1.46700        1.39283
H          1.61520        2.14580       -0.18348
