19

C	-2.118963	-1.539527	-0.396901
C	-0.854769	-0.728184	-0.575012
C	0.104312	-0.574139	0.6038
C	1.534093	-0.393672	0.218815
O	2.490301	-1.040977	0.532345
O	1.631565	0.68818	-0.620354
C	0.419884	1.456069	-0.627446
C	-0.656865	0.618658	0.061283
C	-1.737008	1.366256	0.804535
H	-2.526071	-1.455249	0.614289
H	-2.895656	-1.216876	-1.098783
H	-1.920662	-2.599821	-0.582846
H	-0.379287	-0.864781	-1.544822
H	-0.117122	-1.069588	1.539935
H	0.59902	2.391277	-0.082678
H	0.178073	1.698748	-1.667642
H	-1.301933	2.032942	1.556875
H	-2.330015	1.981353	0.117464
H	-2.425386	0.691601	1.317832
