19

C	2.35122	0.180434	0.276033
C	0.85793	0.144836	0.024598
C	0.246683	1.513235	-0.344301
C	-1.256907	1.466525	-0.236008
C	-1.88163	0.378114	0.20927
C	-1.051811	-0.816211	0.619509
C	-0.53718	-1.590031	-0.609275
O	0.562112	-0.786786	-1.03288
O	0.19456	-0.369197	1.165234
H	2.706392	-0.826042	0.506719
H	2.871922	0.545325	-0.61315
H	2.579839	0.842235	1.115395
H	0.653952	2.30045	0.304782
H	0.549984	1.762604	-1.368228
H	-1.812451	2.353689	-0.527886
H	-2.963205	0.31317	0.271055
H	-1.544321	-1.444689	1.36356
H	-0.195558	-2.596427	-0.331498
H	-1.26976	-1.663857	-1.418536
