19
../xyz/dsC7O2H10nsd_3468.xyz
O          2.45814       -0.06256       -0.75269
C          1.45262        0.43424        0.12564
C          1.12405       -0.64592        1.13046
C         -0.11289       -1.12026        0.99804
C         -0.88267       -0.45779       -0.11199
O         -1.30946       -1.44544       -1.01982
C         -1.93147        0.60005        0.34426
C         -0.84838        1.70308        0.20840
C          0.08783        0.70578       -0.53720
H          2.76759        0.67335       -1.29061
H          1.81675        1.34451        0.63061
H          1.85774       -0.98794        1.85164
H         -0.55701       -1.91124        1.59297
H         -1.87296       -1.02477       -1.67733
H         -2.72342        0.70934       -0.40563
H         -2.40203        0.45623        1.32025
H         -1.14318        2.59666       -0.34532
H         -0.43533        2.01710        1.17085
H          0.16787        0.87566       -1.61304
