19

C	2.419222	-0.481436	-0.852655
C	1.382758	-0.797634	0.201779
C	0.806786	0.206293	1.122979
O	0.68593	1.48801	0.533538
C	-0.260876	0.986079	-0.471591
C	-1.616467	1.639236	-0.305601
C	-0.110456	-0.442061	0.060137
C	-1.152156	-1.457747	0.213111
O	-2.260562	-1.401221	-0.27002
H	2.272759	-1.087086	-1.7522
H	2.385819	0.574076	-1.129596
H	3.421478	-0.690213	-0.464821
H	1.488509	-1.774753	0.672797
H	0.784016	0.14025	2.205801
H	0.130153	1.151158	-1.482561
H	-1.996581	1.496701	0.709309
H	-1.530059	2.712503	-0.499533
H	-2.33299	1.200991	-1.004168
H	-0.838917	-2.334323	0.82788
