19

O	-2.10879	-1.296524	-0.555089
C	-1.432972	-0.219345	-0.023132
C	-1.041813	-0.197279	1.430253
C	0.014623	0.041433	0.376172
O	-0.068822	1.407199	-0.070596
C	-1.419221	1.203432	-0.569451
C	1.312932	-0.651607	0.230269
C	2.596549	0.129605	0.399774
C	2.194888	-0.372496	-0.963532
H	-1.812342	-1.423632	-1.463694
H	-1.354445	0.605628	2.094214
H	-1.015319	-1.188068	1.874413
H	-2.132503	1.924782	-0.154012
H	-1.437905	1.252604	-1.666179
H	1.307977	-1.666605	0.614805
H	2.506109	1.193984	0.582495
H	3.421378	-0.352589	0.912226
H	1.842824	0.366352	-1.674236
H	2.745208	-1.200319	-1.396662
