19

O	2.901602	4e-06	-0.473703
C	1.489467	1e-06	-0.408418
C	0.872795	-1.211928	0.3201
C	-0.559869	-0.797397	0.670825
C	-1.529262	-0.73607	-0.51958
O	-2.68054	-3e-06	-0.096382
C	-1.529265	0.736071	-0.519576
C	-0.559871	0.797396	0.670827
C	0.872793	1.21193	0.3201
H	3.238139	-3.5e-05	0.429398
H	1.169196	1e-06	-1.456077
H	0.928461	-2.130134	-0.272697
H	1.439341	-1.391111	1.244134
H	-0.963379	-1.307115	1.547983
H	-1.662693	-1.446669	-1.328581
H	-1.6627	1.446674	-1.328574
H	-0.963379	1.307111	1.547988
H	0.928457	2.130135	-0.272697
H	1.439341	1.391114	1.244133
