19

C	0.571221	-0.335372	0.842342
C	1.699604	-0.513216	-0.151542
C	3.095377	-0.227608	0.197023
O	2.340484	0.681828	-0.606261
C	-0.71597	0.022535	0.163998
C	-1.129044	1.37143	-0.334761
C	-2.04039	0.606639	0.609081
C	-2.659957	-0.558319	-0.151522
O	-1.35583	-1.004535	-0.614305
H	0.435765	-1.266255	1.407534
H	0.841903	0.454954	1.550385
H	1.50716	-1.239743	-0.941603
H	3.336111	0.123945	1.200168
H	3.902542	-0.749162	-0.315452
H	-0.611493	2.212942	0.114267
H	-1.398238	1.499827	-1.379794
H	-2.361259	0.987914	1.569243
H	-3.117796	-1.316997	0.49355
H	-3.336977	-0.3223	-0.981481
