19

C	2.682908	0.790921	0.017451
C	1.587037	-0.258888	0.089229
O	1.791984	-1.413561	-0.20535
C	0.227254	0.203113	0.601219
C	-0.467312	1.35502	-0.210926
C	-1.759668	0.583017	-0.557583
C	-2.17645	-0.08174	0.77173
C	-0.885205	-0.85524	0.426553
O	-1.22575	-0.704876	-0.988333
H	3.626567	0.318518	-0.257669
H	2.432434	1.559253	-0.721782
H	2.788647	1.302571	0.98082
H	0.358511	0.493009	1.651623
H	-0.639963	2.260176	0.376664
H	0.075877	1.624421	-1.119439
H	-2.463779	1.034017	-1.25666
H	-2.220764	0.518342	1.685037
H	-3.064727	-0.702632	0.654578
H	-0.674059	-1.877398	0.730258
