19
../xyz/dsC7O2H10nsd_0205.xyz
C          1.68958        0.03089       -0.68125
C          0.92002       -1.18203       -0.08837
C         -0.44223       -1.46921       -0.74239
C         -1.34538       -0.39369       -0.11194
O         -0.91838       -0.32358        1.23125
C          0.50216       -0.29495        1.13127
C          1.00358        0.96538        0.35542
C         -0.22097        1.71931       -0.16204
O         -1.17110        0.85263       -0.78067
H          2.76813       -0.04206       -0.52164
H          1.50596        0.25422       -1.73597
H          1.50047       -2.08524        0.10109
H         -0.43349       -1.39969       -1.83217
H         -0.80670       -2.45968       -0.45333
H         -2.41337       -0.62479       -0.12474
H          0.92870       -0.49102        2.11440
H          1.66066        1.65192        0.89618
H         -0.69093        2.25688        0.67339
H          0.05589        2.45274       -0.92606
