19
../xyz/dsC7O2H10nsd_4473.xyz
C         -2.66237       -0.45370        0.30703
C         -1.34777       -0.43135       -0.48530
C         -0.92512        0.99864       -0.90894
C         -0.17320        1.57278        0.31257
C          0.55271        0.35659        0.91470
C         -0.18242       -0.90038        0.38564
O          1.00653       -1.25681       -0.40918
C          1.70784       -0.17452        0.06130
O          2.82585        0.13480       -0.20001
H         -3.48816       -0.08171       -0.30648
H         -2.91363       -1.46966        0.62870
H         -2.60887        0.17271        1.20440
H         -1.44481       -1.08885       -1.35511
H         -0.24987        0.94446       -1.76873
H         -1.77820        1.61416       -1.20628
H          0.51936        2.37592        0.04818
H         -0.87497        1.97691        1.04927
H          0.77747        0.43362        1.97845
H         -0.41542       -1.70988        1.07916
