19
../xyz/dsC7O2H10nsd_3643.xyz
C         -2.87127       -1.03608        0.49632
C         -1.85174       -0.33071       -0.40542
C         -0.38939       -0.81883       -0.21411
C          0.49291        0.44309       -0.32181
O          1.53017        0.48842        0.69889
C          2.65584       -0.18180        0.42886
O          2.88254       -0.83168       -0.55597
C         -0.47082        1.57455       -0.10129
C         -1.73319        1.15813       -0.16309
H         -3.88244       -0.64978        0.32967
H         -2.88951       -2.11305        0.29974
H         -2.62404       -0.88938        1.55330
H         -2.15764       -0.49354       -1.44956
H         -0.27109       -1.22222        0.79735
H         -0.09337       -1.59711       -0.91936
H          1.00328        0.50822       -1.28810
H          3.35865       -0.04176        1.26571
H         -0.13414        2.59544        0.03467
H         -2.60541        1.79914       -0.08347
