19

C	-2.65218	0.439989	0.377548
C	-1.491844	-0.078734	-0.47801
O	-1.573881	-1.481685	-0.671338
C	-0.145115	0.274831	0.129424
O	0.030421	-0.402053	1.342817
C	0.453012	1.635304	-0.048766
C	1.066785	0.435223	-0.782164
C	2.307481	-0.110307	-0.324795
C	3.302653	-0.614962	0.130602
H	-2.583998	0.039714	1.393586
H	-2.641375	1.533063	0.440089
H	-3.60178	0.121859	-0.059964
H	-1.550057	0.366015	-1.478624
H	-1.295592	-1.873029	0.166683
H	0.936152	-0.741778	1.371054
H	-0.069013	2.367273	-0.65607
H	1.018971	2.040395	0.781794
H	0.88167	0.361591	-1.849271
H	4.207958	-1.033263	0.495853
