19
../xyz/dsC7O2H10nsd_4156.xyz
C         -2.48615       -0.86434        0.00108
C         -1.06840       -0.52033       -0.45994
C         -0.88628        0.97204       -0.89747
C          0.25686        1.44488        0.01729
C         -0.04931        0.74033        1.34530
C         -0.00182       -0.65028        0.68227
C          1.34400       -0.54538       -0.02793
O          2.16525       -1.37865       -0.27339
O          1.46552        0.76361       -0.42106
H         -2.80270       -0.24154        0.84472
H         -3.20360       -0.70679       -0.81098
H         -2.55670       -1.91173        0.31144
H         -0.80268       -1.19412       -1.27986
H         -0.61768        1.07949       -1.95025
H         -1.79349        1.55758       -0.71633
H          0.46237        2.51383        0.03091
H          0.72795        0.89547        2.09733
H         -1.02267        1.00625        1.76280
H         -0.09046       -1.53966        1.30224
