19

C	2.092888	-1.315164	-0.296777
C	0.956508	-0.357134	-0.004784
C	-0.122975	-0.803787	1.047118
C	-1.195351	-0.306036	0.082372
O	-2.481753	-0.803032	-0.020614
C	-0.79143	1.054924	-0.456314
O	0.139466	1.836688	0.263358
C	1.362297	1.092141	0.29124
C	-0.184972	-0.172976	-1.053073
H	2.701946	-0.964287	-1.137729
H	2.751832	-1.420369	0.57265
H	1.713957	-2.310241	-0.548992
H	-0.15678	-1.892813	1.139054
H	-0.07217	-0.34886	2.043056
H	-3.040713	-0.326691	0.603814
H	-1.538685	1.631663	-0.988852
H	2.058934	1.473743	-0.471619
H	1.819835	1.21577	1.278937
H	-0.201656	-0.478969	-2.090951
