19
../xyz/dsC7O2H10nsd_3439.xyz
C         -2.69805       -0.53870       -0.26145
C         -1.24616       -0.46018        0.09435
C         -0.32485       -1.42050       -0.02224
C          1.06030       -1.00326        0.43015
O          2.07319       -1.19126       -0.53964
C          0.86230        0.49655        0.76854
O          1.17952        1.33081       -0.37861
C         -0.18048        1.82293       -0.45427
C         -0.64126        0.81873        0.62963
H         -2.96830        0.22778       -0.99923
H         -2.96038       -1.51564       -0.67522
H         -3.33035       -0.35901        0.61751
H         -0.51190       -2.41637       -0.41062
H          1.38081       -1.57204        1.31242
H          1.99465       -0.43203       -1.13549
H          1.39876        0.83305        1.66011
H         -0.23347        2.87787       -0.15889
H         -0.60851        1.70141       -1.45572
H         -1.17380        1.24520        1.48292
