19
../xyz/dsC7O2H10nsd_2414.xyz
O         -1.32133        1.45247       -0.88392
C         -0.58527        0.61143       -0.00573
C         -1.49210       -0.11530        1.04473
C         -1.47178       -1.37902        0.13518
C         -0.25784       -0.78867       -0.61810
O          0.92144       -1.35134       -0.07895
C          2.06469       -0.52386       -0.19745
C          1.83673        0.87479        0.31329
C          0.61479        1.38460        0.43456
H         -2.15686        1.02054       -1.09104
H         -0.97779       -0.27827        1.99345
H         -2.45611        0.36241        1.23953
H         -1.28568       -2.34108        0.61431
H         -2.35809       -1.46624       -0.49967
H         -0.25281       -0.82227       -1.71804
H          2.85095       -1.01931        0.38297
H          2.41664       -0.48951       -1.24485
H          2.71930        1.45043        0.57883
H          0.44441        2.39045        0.80863
