19
../xyz/dsC7O2H10nsd_1155.xyz
C         -3.24560       -0.38867       -0.21403
C         -1.85426        0.16330        0.03315
O         -1.66512        1.17089        0.67455
C         -0.69524       -0.61301       -0.59560
C          0.64145       -0.21139       -0.05019
C          1.35147       -0.91384        1.09266
C          2.03603       -0.76568       -0.23292
O          2.62692        0.52772       -0.35717
C          1.31070        1.14504       -0.25777
H         -3.99680        0.32209        0.13213
H         -3.39710       -0.60944       -1.27622
H         -3.36698       -1.33487        0.32678
H         -0.86895       -1.68948       -0.47532
H         -0.75031       -0.42885       -1.68037
H          1.71884       -0.35665        1.95026
H          0.97370       -1.90810        1.31506
H          2.44204       -1.57314       -0.83264
H          1.24171        1.87188        0.55675
H          1.04207        1.62326       -1.20722
