19

C	2.241882	0.355781	-0.717453
C	0.756282	0.064149	-0.869817
C	0.193782	-1.289939	-0.335167
O	0.570266	-1.283505	1.051056
C	0.224719	0.063848	1.468894
C	-0.29453	0.672129	0.153354
C	-0.77713	2.098239	0.133319
C	-1.150808	-0.532385	-0.312821
O	-2.27986	-0.700136	-0.662094
H	2.626902	-0.014506	0.234918
H	2.807854	-0.13313	-1.516549
H	2.44144	1.430721	-0.780949
H	0.4164	0.248296	-1.894494
H	0.373178	-2.264289	-0.781927
H	-0.544948	0.031625	2.249567
H	1.111521	0.569296	1.868022
H	-1.565606	2.254431	0.877165
H	0.03545	2.798447	0.356644
H	-1.19061	2.357309	-0.845947
