19

C	3.815909	0.714633	-0.15611
C	2.587104	-0.058405	-0.045485
C	1.573548	-0.700592	0.04945
C	0.336787	-1.4668	0.14658
C	-0.915116	-0.658377	-0.221107
C	-2.185354	-1.499736	-0.224872
O	-1.028882	0.386234	0.781286
C	-1.608528	1.531452	0.40369
O	-2.069499	1.779444	-0.677512
H	4.289389	0.853211	0.822158
H	4.54258	0.218173	-0.808719
H	3.622475	1.708948	-0.573552
H	0.380872	-2.337151	-0.520482
H	0.210171	-1.861034	1.163129
H	-0.779609	-0.174386	-1.191014
H	-2.356042	-1.95056	0.757813
H	-3.046907	-0.880981	-0.484829
H	-2.10478	-2.301498	-0.965294
H	-1.597199	2.226811	1.25773
