19
../xyz/dsC7O2H10nsd_5303.xyz
C         -2.82291        0.15285       -0.52292
C         -1.87208       -0.18168        0.63318
C         -0.42326       -0.06007        0.25005
O         -0.05414        1.23128       -0.19825
C          1.35156        1.39072        0.02369
C          1.84741       -0.02970        0.23951
O          1.53485       -0.77163       -0.98299
C          0.33135       -1.23155       -0.36983
C          0.69619       -0.72142        1.00589
H         -3.86622        0.07759       -0.20264
H         -2.64530        1.16950       -0.88245
H         -2.67548       -0.53049       -1.36529
H         -2.06801        0.48509        1.48212
H         -2.05249       -1.20366        0.98843
H          1.79942        1.85053       -0.86223
H          1.53873        2.02904        0.90164
H          2.88393       -0.15628        0.55347
H         -0.10009       -2.16331       -0.71974
H          0.69029       -1.15011        1.99916
