19
../xyz/dsC7O2H10nsd_2182.xyz
C         -2.37355       -0.11965        0.00679
C         -0.88307       -0.36159        0.01234
C         -0.21224       -0.99234       -1.24332
C          1.03659       -0.10069       -1.04970
O          1.87863       -0.59383        0.01508
C          1.03372       -0.00656        1.02954
C         -0.21034       -0.87986        1.31844
C          0.22982        0.78225       -0.03411
O          0.05560        2.14648        0.01982
H         -2.92706       -1.06400        0.07505
H         -2.67834        0.50429        0.85440
H         -2.69907        0.38030       -0.91388
H         -0.04376       -2.07243       -1.24977
H         -0.75193       -0.70363       -2.15334
H          1.61419        0.22900       -1.91565
H          1.60731        0.42091        1.85319
H         -0.04200       -1.95501        1.42242
H         -0.74215       -0.50529        2.20017
H         -0.53658        2.41532       -0.69166
