19
../xyz/dsC7O2H10nsd_5027.xyz
C          2.76401       -0.09022       -0.14626
C          1.52605       -0.99601       -0.20168
C          0.26808       -0.29172        0.22707
C         -0.11600        0.31603        1.62659
C         -1.39140        0.61337        0.76527
C         -1.21491       -0.82925        0.22460
O         -1.84747       -1.08465       -0.99746
C         -0.37292        1.00034       -0.32354
O         -0.15350        1.85787       -1.12086
H          2.62296        0.79475       -0.77317
H          2.95942        0.24893        0.87631
H          3.65334       -0.62138       -0.49752
H          1.38372       -1.35669       -1.22912
H          1.68232       -1.88707        0.42037
H         -0.26416       -0.42278        2.41848
H          0.45599        1.17521        1.97608
H         -2.31217        1.09924        1.07701
H         -1.39993       -1.61188        0.97223
H         -1.55115       -1.93929       -1.32638
