19

O	-3.017238	-0.401861	0.024102
C	-1.671355	-0.266022	0.379266
C	-0.901968	0.923138	-0.128926
C	-0.609404	-0.505572	-0.65579
C	0.760725	-0.443136	-0.009888
C	2.060298	-0.872428	-0.625718
C	1.553692	-1.544377	0.631107
C	0.493814	0.991175	0.515549
O	1.354623	1.991099	0.020836
H	-3.139182	-0.055001	-0.866147
H	-1.532577	-0.621581	1.397885
H	-1.403297	1.758634	-0.605901
H	-0.84506	-0.956395	-1.614871
H	2.026894	-1.433033	-1.55458
H	2.902413	-0.193573	-0.53654
H	1.176812	-2.559064	0.552065
H	2.066511	-1.327578	1.562744
H	0.501699	1.115278	1.603893
H	1.431897	1.86175	-0.931656
