19
../xyz/dsC7O2H10nsd_4101.xyz
C         -1.62598       -1.21394       -1.03047
C         -1.31646       -0.35437        0.18711
C         -1.43215        1.20062        0.06066
C          0.03445        1.34061        0.50356
O          0.94520        1.31886       -0.64403
C          1.13180       -0.04130       -0.53214
O          1.83228       -0.73290       -1.20054
C          0.18181       -0.20002        0.65461
C          0.66928       -0.97314        1.85759
H         -1.38319       -2.26579       -0.84696
H         -2.69087       -1.15479       -1.27972
H         -1.05794       -0.89067       -1.90835
H         -1.90200       -0.70618        1.04249
H         -1.62073        1.58827       -0.94312
H         -2.14875        1.64656        0.75402
H          0.34347        2.08513        1.23595
H          0.75343       -2.03746        1.61338
H          1.65569       -0.63035        2.18570
H         -0.02549       -0.87313        2.69766
