19

C	-2.848719	-0.398003	0.100772
O	-1.519359	-0.716807	-0.255552
C	-0.563908	0.081546	0.388964
C	-0.26082	1.456201	-0.277874
O	0.841569	2.011131	0.443291
C	1.11438	1.040848	-0.587855
C	0.877298	-0.331027	0.006873
C	1.235888	-1.645947	-0.614933
C	1.827134	-1.245378	0.717466
H	-3.119114	0.630543	-0.179707
H	-3.50065	-1.090957	-0.436014
H	-3.015346	-0.514015	1.182477
H	-0.768921	0.15967	1.466666
H	-0.933588	2.131581	-0.793647
H	1.785632	1.339309	-1.385161
H	0.46223	-2.4048	-0.63271
H	1.881756	-1.638009	-1.487142
H	1.468134	-1.752324	1.607344
H	2.874662	-0.965024	0.755509
