19
../xyz/dsC7O2H10nsd_1804.xyz
C         -1.27543        1.90837        0.13271
C         -0.97095        0.44669       -0.05060
C         -1.56471       -0.75965        0.75350
C         -0.55222       -1.39529       -0.24442
C         -1.14672       -0.44287       -1.31808
C          0.43930       -0.24811        0.17581
O          0.90936       -0.26154        1.48652
C          1.57869        0.09698       -0.74638
O          2.68646        0.32556       -0.30902
H         -0.95388        2.24061        1.12518
H         -0.76258        2.52376       -0.61450
H         -2.35061        2.09776        0.04381
H         -1.31799       -0.81599        1.81168
H         -2.61924       -0.97739        0.56240
H         -0.30043       -2.45029       -0.35463
H         -0.56402       -0.21387       -2.21125
H         -2.18397       -0.65268       -1.58887
H          1.85174       -0.03638        1.42251
H          1.38656        0.13558       -1.83156
