19
../xyz/dsC7O2H10nsd_3846.xyz
O         -2.23706       -0.45029        0.64149
C         -1.37534       -0.47359       -0.49409
C         -0.09897       -1.34151       -0.30493
C          1.00268       -0.31894        0.00549
O          2.32170       -0.77839       -0.11449
C          0.63673        0.52242        1.27720
C          0.03395        1.57126        0.34231
C         -0.82837        0.92755       -0.73296
C          0.66670        0.92050       -0.87268
H         -2.64661       -1.31786        0.71854
H         -1.93736       -0.81183       -1.37595
H         -0.23438       -2.08461        0.48987
H          0.15354       -1.86715       -1.23261
H          2.46347       -1.45931        0.55203
H         -0.01759        0.06241        2.02317
H          1.55333        0.89345        1.74366
H         -0.07515        2.62652        0.56221
H         -1.41145        1.61947       -1.32977
H          1.25085        1.32221       -1.68923
