19
../xyz/dsC7O2H10nsd_3499.xyz
C         -1.52304        1.96085        0.43098
C         -1.21001        0.66198       -0.31797
C         -2.19651       -0.46543       -0.10049
C         -1.59555       -1.64120        0.07529
C         -0.09167       -1.52409        0.00648
C          0.12001        0.00235        0.10780
O          1.18400        0.50014       -0.73534
C          2.43237        0.32076       -0.28733
O          2.75128       -0.23015        0.73124
H         -1.60274        1.78312        1.50893
H         -0.73597        2.70362        0.26508
H         -2.46887        2.39469        0.09115
H         -1.14786        0.89009       -1.39258
H         -3.26873       -0.30276       -0.12183
H         -2.10042       -2.58997        0.21841
H          0.43678       -2.06541        0.79600
H          0.29486       -1.90002       -0.95118
H          0.36324        0.26867        1.14007
H          3.13385        0.76680       -1.00987
