19

C	2.904514	-0.667961	-0.130746
O	1.994372	0.397046	-0.282765
C	0.775132	0.211716	0.422201
C	0.061818	1.540482	0.520592
C	-1.112683	1.552851	-0.109085
C	-1.426859	0.224241	-0.73602
O	-2.368248	-0.580562	0.030349
C	-1.304316	-1.421166	0.521608
C	-0.241656	-0.68255	-0.320481
H	2.512925	-1.616227	-0.530219
H	3.807391	-0.403974	-0.686679
H	3.170579	-0.82741	0.926241
H	1.003642	-0.195059	1.423226
H	0.507271	2.375007	1.050439
H	-1.791059	2.397283	-0.157531
H	-1.735081	0.281541	-1.785467
H	-1.177429	-1.337252	1.609819
H	-1.471093	-2.473511	0.263682
H	0.228164	-1.277961	-1.102588
