19

C	-0.272659	2.133916	-0.48226
C	-0.429933	0.716515	0.007756
C	-1.471342	0.37009	1.072796
C	-1.593621	-0.179727	-0.321023
O	-1.174163	-1.499984	-0.565334
C	0.159172	-1.640358	-0.090265
C	0.745857	-0.225961	0.005962
C	2.086823	0.119205	-0.478214
O	1.825258	-0.044305	0.922699
H	0.090287	2.16687	-1.515293
H	-1.228126	2.66576	-0.447137
H	0.434556	2.688596	0.145296
H	-1.197815	-0.295729	1.884017
H	-2.152904	1.165439	1.355923
H	-2.409799	0.113668	-0.971211
H	0.180813	-2.10495	0.90579
H	0.704194	-2.290346	-0.780811
H	2.708134	-0.653106	-0.931522
H	2.316119	1.136027	-0.792483
