19

C	-2.692234	-1.143041	-0.188333
O	-1.58342	-0.394841	-0.705276
C	-0.721798	0.068459	0.219632
O	-0.848308	-0.114651	1.40494
C	0.390365	0.888827	-0.417262
C	0.051721	2.382583	-0.26482
C	1.739337	0.553623	0.257576
C	2.19208	-0.80496	-0.014799
C	2.545876	-1.926984	-0.260521
H	-3.291703	-0.527496	0.487186
H	-3.279359	-1.441722	-1.056724
H	-2.339897	-2.021511	0.357603
H	0.439592	0.633993	-1.478751
H	-0.89682	2.621132	-0.754222
H	-0.03087	2.65233	0.792459
H	0.832752	2.998983	-0.719752
H	2.494232	1.270333	-0.087544
H	1.627535	0.697173	1.33837
H	2.866285	-2.91832	-0.464785
