19

C	2.248081	-1.103182	-0.04678
C	0.983133	-0.301334	0.050337
C	0.130579	-0.069119	1.300169
C	-0.831874	0.587029	0.236951
C	-2.176274	-0.127938	0.129207
O	-1.476461	-1.312548	-0.370768
C	-0.332364	-0.491534	-0.750837
C	-0.025139	1.793305	-0.184662
O	1.244737	1.084124	-0.38077
H	2.635432	-1.082436	-1.070049
H	3.016567	-0.697443	0.618319
H	2.056526	-2.142995	0.232698
H	-0.286365	-0.979116	1.728181
H	0.553841	0.583008	2.066986
H	-2.723995	-0.334706	1.053627
H	-2.856743	0.274422	-0.632403
H	-0.28041	-0.336148	-1.832826
H	-0.343427	2.244164	-1.129757
H	0.105513	2.575286	0.571226
