19

O	-2.285136	-0.890933	-0.425201
C	-1.444199	-0.098846	0.400627
C	-0.246213	-0.907811	0.971438
C	0.924309	-0.510077	0.071313
O	1.914006	-1.449012	-0.219911
C	1.344741	0.953126	0.034264
C	0.207261	1.858636	0.501971
C	-0.768902	1.028513	-0.396809
C	0.466189	0.358628	-1.065426
H	-1.742018	-1.24011	-1.141611
H	-2.098422	0.289422	1.186938
H	-0.061153	-0.685763	2.028334
H	-0.448394	-1.979233	0.886294
H	2.494494	-1.518971	0.545669
H	2.398638	1.202046	-0.02048
H	-0.014405	1.907327	1.575167
H	0.324211	2.876611	0.122126
H	-1.464759	1.59348	-1.01539
H	0.681735	0.181733	-2.110429
