19

C	-0.077556	2.139048	-0.261948
C	-0.450985	0.696425	-0.123576
O	-0.780997	0.291262	1.247546
C	-1.618849	-0.704562	0.662776
C	-0.876504	-1.308074	-0.544511
C	-1.73257	-0.050681	-0.66588
C	0.41951	-0.501205	-0.638426
C	1.638621	-0.928473	0.164729
O	2.717439	-0.004862	0.041729
H	-0.893748	2.785614	0.072953
H	0.805846	2.367956	0.343691
H	0.15683	2.375257	-1.303937
H	-2.329091	-1.230602	1.286303
H	-1.090517	-2.298337	-0.92624
H	-2.556862	0.225095	-1.308408
H	0.690355	-0.327904	-1.685131
H	1.35354	-1.076175	1.213582
H	2.011346	-1.886197	-0.217475
H	2.550767	0.719229	0.651476
