19

O	2.734583	-0.399769	0.21713
C	1.564395	-0.163763	0.091012
C	0.889934	1.10129	0.593792
C	-0.160079	1.621296	-0.398542
C	-1.219698	0.557557	-0.677985
C	-2.169624	0.193472	0.50494
C	-1.434705	-1.16511	0.686593
C	-0.641634	-0.890537	-0.617741
O	0.776643	-1.052766	-0.571279
H	0.424436	0.884704	1.563628
H	1.681389	1.8292	0.779763
H	-0.627158	2.535173	-0.014981
H	0.342472	1.892214	-1.334376
H	-1.739394	0.782555	-1.612264
H	-2.133399	0.871604	1.361977
H	-3.212935	0.090073	0.200221
H	-0.788143	-1.203769	1.566522
H	-2.053576	-2.064688	0.680551
H	-0.955031	-1.522022	-1.450258
