19

O	2.5477	0.049615	0.561676
C	1.801574	-0.756298	-0.344536
C	0.339542	-0.441749	-0.26155
C	-0.621444	-1.091239	0.747865
C	-1.800203	-0.144429	0.967866
C	-1.667011	0.201192	-0.538824
C	-0.899776	-1.172284	-0.735802
C	-0.277679	0.889744	-0.662222
O	0.045133	2.060513	0.061873
H	2.278969	0.962931	0.405465
H	2.156289	-0.61468	-1.37893
H	2.003234	-1.798386	-0.072968
H	-0.265508	-1.881411	1.39676
H	-2.721479	-0.697789	1.167727
H	-1.716166	0.672669	1.697741
H	-2.519526	0.558781	-1.111828
H	-1.026621	-2.002006	-1.414775
H	-0.055343	1.119454	-1.708831
H	-0.12653	1.889785	0.994468
