19
../xyz/dsC7O2H10nsd_2930.xyz
C         -1.76499        1.58369       -0.02079
C         -0.63376        0.59787        0.00727
C         -0.79038       -0.85015       -0.33686
O         -2.12661       -1.27042       -0.36863
C         -0.24824       -0.50307        1.03334
C          1.22749       -0.06226        0.99933
C          2.15954       -0.65561       -0.07919
O          1.67935        0.29525       -1.06741
C          0.86575        0.97744       -0.07580
H         -1.83978        2.05898       -1.00664
H         -2.71352        1.08144        0.18104
H         -1.62705        2.37752        0.72181
H         -0.15849       -1.29358       -1.10380
H         -2.15382       -2.18666       -0.07507
H         -0.79062       -0.82371        1.91582
H          1.65813        0.21746        1.95956
H          3.22786       -0.50671        0.12008
H          1.99022       -1.69554       -0.38199
H          1.09267        2.04474       -0.00632
