19

C	-0.726679	1.037257	0.033441
C	-1.910952	0.250789	-0.476633
C	-3.08204	-0.039466	0.35928
O	-2.1071	-1.049868	0.092442
C	0.602563	0.523923	-0.520041
C	1.874409	1.18359	0.130586
C	2.257659	-0.200165	0.672628
O	2.380524	-1.076458	-0.452762
C	1.070195	-0.824861	0.06528
H	-0.854539	2.09253	-0.24264
H	-0.716205	0.991507	1.129743
H	-2.058444	0.277238	-1.558295
H	-3.109125	0.323999	1.385915
H	-4.05586	-0.196542	-0.102138
H	0.593132	0.532334	-1.61501
H	2.602752	1.638489	-0.54495
H	1.608201	1.89671	0.916152
H	2.821285	-0.457166	1.561949
H	0.470486	-1.674894	0.364585
