19
../xyz/dsC7O2H10nsd_0157.xyz
C          2.86674       -0.33358        0.18314
C          2.09147        0.99766        0.11901
C          0.92610        0.12551       -0.40435
O          1.70157       -1.08485       -0.21705
C         -0.36319        0.10310        0.38593
C         -1.34369        1.28229        0.02665
C         -2.33033        0.23489       -0.50784
O         -2.62710       -0.65470        0.57311
C         -1.42125       -0.87179       -0.16517
H          3.68383       -0.43155       -0.54289
H          3.23283       -0.64003        1.16979
H          1.90019        1.46305        1.08801
H          2.47874        1.74822       -0.57103
H          0.70873        0.27735       -1.47274
H         -0.15193       -0.03485        1.45032
H         -1.71344        1.88762        0.85692
H         -0.93990        1.93636       -0.75175
H         -3.07574        0.33028       -1.28879
H         -1.27408       -1.84854       -0.61035
