19

C	2.682835	0.132501	0.155163
C	1.177897	0.059355	0.084904
C	0.380355	-0.938482	0.97132
C	-0.464295	-1.063063	-0.312532
O	0.692337	-0.669375	-1.098974
C	-1.518911	0.053785	-0.438047
O	-2.647049	-0.174377	0.401307
C	-0.848823	1.383814	-0.155245
C	0.455201	1.397756	0.119998
H	3.077207	0.729556	-0.673882
H	2.999155	0.601257	1.093265
H	3.118782	-0.867949	0.09813
H	0.94314	-1.853851	1.165643
H	-0.073025	-0.564132	1.89183
H	-0.863782	-2.039607	-0.595668
H	-1.920317	0.040815	-1.458433
H	-2.365317	-0.031545	1.31164
H	-1.466183	2.277311	-0.165448
H	1.002475	2.30417	0.360893
