19

C	2.317999	-0.805743	-0.492445
C	1.063992	-0.830698	0.390401
C	0.809947	0.5479	1.044822
C	-0.010136	1.313201	0.005041
O	0.016633	2.4943	-0.219646
C	-0.867656	0.274107	-0.731433
O	-2.012108	-0.067798	0.092485
C	-1.499869	-1.400621	0.327228
C	-0.206484	-1.098604	-0.454888
H	3.211737	-0.585153	0.0994
H	2.469393	-1.768898	-0.990252
H	2.241179	-0.036695	-1.270716
H	1.179953	-1.611518	1.150177
H	0.193907	0.449499	1.947264
H	1.715671	1.092255	1.318359
H	-1.151294	0.579247	-1.741822
H	-1.378689	-1.61545	1.396685
H	-2.152206	-2.161763	-0.11706
H	-0.012608	-1.750791	-1.307097
