19
../xyz/dsC7O2H10nsd_4397.xyz
C          2.11499        1.67436       -0.38027
C          1.63107        0.44278        0.34941
O          1.77567       -0.70507       -0.45667
C          0.85099       -1.63491        0.08011
C         -0.34151       -0.74718        0.50146
C         -1.45675       -0.70339       -0.55919
C         -2.53909        0.21077       -0.22202
C         -3.43779        0.95249        0.07080
O          0.24378        0.54397        0.64324
H          3.18272        1.58570       -0.59679
H          1.56381        1.78896       -1.31655
H          1.95329        2.55873        0.24068
H          2.18496        0.29821        1.29686
H          0.60470       -2.36717       -0.69238
H          1.27673       -2.15929        0.94864
H         -0.76400       -1.06484        1.46214
H         -1.00415       -0.41977       -1.51737
H         -1.85862       -1.71804       -0.68273
H         -4.22652        1.61675        0.32313
