19
../xyz/dsC7O2H10nsd_2878.xyz
C         -2.50313       -0.15016       -0.30721
C         -1.01446       -0.23412       -0.65092
C         -0.32365        1.12077       -0.57021
C          1.18293        1.02941       -0.37342
C          1.85303       -0.31682       -0.58553
O          1.05142       -1.40368       -0.10834
C         -0.18939       -0.99521        0.41392
O         -0.00630       -0.06344        1.47220
C          0.27270        1.15756        0.81623
H         -3.03451        0.48608       -1.02237
H         -2.96995       -1.14047       -0.33071
H         -2.64613        0.27000        0.69285
H         -0.87346       -0.72569       -1.61863
H         -0.76841        1.99218       -1.03598
H          1.77763        1.89221       -0.65668
H          2.06538       -0.47891       -1.65181
H          2.81113       -0.34747       -0.05034
H         -0.66113       -1.88954        0.82274
H          0.27033        2.00995        1.48280
