19

C	3.880582	-0.338758	0.100774
C	2.416456	-0.588187	-0.268515
C	1.519611	0.629824	-0.006485
C	0.074151	0.403191	-0.399296
C	-1.003515	1.143526	0.299988
O	-2.278427	0.871619	-0.343885
C	-2.193881	-0.466607	0.042378
O	-3.022232	-1.305925	-0.089542
C	-0.822093	-0.314111	0.639815
H	4.495265	-1.221468	-0.098786
H	4.298355	0.4951	-0.474099
H	3.986056	-0.093069	1.163348
H	2.344562	-0.863699	-1.328392
H	2.031753	-1.447343	0.294487
H	1.574611	0.906249	1.055132
H	1.901998	1.492818	-0.567406
H	-0.096574	0.171452	-1.448415
H	-0.932353	2.034556	0.907597
H	-0.426265	-0.813412	1.511998
