19
../xyz/dsC7O2H10nsd_1252.xyz
C         -2.71570        0.42667        0.24867
C         -1.54518       -0.36781       -0.32556
O         -1.66013       -1.75283       -0.01391
C         -0.18060        0.07037        0.25638
C          0.97347       -0.79004       -0.31041
C          2.28227       -0.55581        0.40893
O          3.35557       -0.46475       -0.12661
C          0.07317        1.49089        0.02844
C          0.31276        2.65009       -0.18125
H         -3.66048        0.07838       -0.18372
H         -2.76830        0.29582        1.33434
H         -2.61526        1.49157        0.02596
H         -1.50727       -0.22440       -1.41736
H         -2.50923       -2.06434       -0.34145
H         -0.23639       -0.10936        1.34022
H          0.69877       -1.84269       -0.17002
H          1.11849       -0.61097       -1.37909
H          2.18950       -0.49543        1.51980
H          0.52545        3.67594       -0.35567
