19
../xyz/dsC7O2H10nsd_4261.xyz
C          2.70476        0.63708       -0.00515
C          1.29705        0.27505       -0.43805
O          1.08095       -1.15709       -0.49053
C          0.14046       -1.10941        0.60940
C         -1.27496       -1.53284        0.19750
C         -1.84583       -0.32707       -0.56790
C         -1.14912        0.89340        0.04840
O         -1.57360        2.01983        0.07134
C          0.18232        0.43385        0.63587
H          2.93756        0.20627        0.97339
H          3.42884        0.25426       -0.73103
H          2.81775        1.72486        0.05465
H          1.06955        0.73766       -1.40757
H          0.51858       -1.65444        1.48032
H         -1.25342       -2.45528       -0.38826
H         -1.86459       -1.72437        1.10213
H         -1.56395       -0.36772       -1.62778
H         -2.93089       -0.22032       -0.52307
H          0.45371        0.97677        1.54040
