19

O	-3.239518	-0.807933	0.105104
C	-2.041678	-0.172095	0.448304
C	-1.444458	0.817592	-0.506171
C	-0.233382	1.508887	0.124778
C	0.44054	0.108569	0.359566
C	1.715964	-0.085697	-0.411869
C	2.755682	-1.030772	0.014646
O	2.918468	0.375761	0.209156
C	-0.784833	-0.564647	-0.276396
H	-3.272143	-0.910556	-0.851996
H	-2.028226	0.011459	1.521123
H	-2.014835	1.181345	-1.35447
H	0.336465	2.116078	-0.582867
H	-0.431686	2.110749	1.017428
H	0.619311	-0.151513	1.409315
H	1.651208	0.147593	-1.477468
H	2.609484	-1.613212	0.923726
H	3.417687	-1.481867	-0.723413
H	-0.765882	-1.443728	-0.912614
