19
../xyz/dsC7O2H10nsd_0065.xyz
C          3.75325       -0.28938        0.00000
C          2.27936       -0.65218       -0.00001
O          1.53289        0.55875        0.00000
C          0.18313        0.43958        0.00000
C         -0.67893        1.49446       -0.00000
O         -1.96741        1.03242       -0.00000
C         -1.92170       -0.32287        0.00000
C         -3.22338       -1.04138       -0.00000
C         -0.62641       -0.74869        0.00001
H          4.36484       -1.19641       -0.00002
H          4.00413        0.29968       -0.88643
H          4.00412        0.29964        0.88647
H          2.02381       -1.24894       -0.88764
H          2.02381       -1.24897        0.88760
H         -0.54316        2.56113       -0.00000
H         -3.05298       -2.12021       -0.00006
H         -3.82188       -0.78901        0.88286
H         -3.82192       -0.78891       -0.88281
H         -0.29655       -1.77461        0.00001
