19
../xyz/dsC7O2H10nsd_1414.xyz
C         -1.93251        1.08795        0.12835
C         -0.90987       -0.03544        0.06308
O         -1.64040       -1.24603       -0.02714
C          0.12734       -0.06622        1.19585
C          1.34950        0.72633        0.72536
C          1.04419        1.24435       -0.67748
C          0.15140        0.05761       -1.07598
O          0.98089       -1.08684       -0.77552
C          1.30491       -0.77422        0.57722
H         -1.46740        2.05891        0.30968
H         -2.50724        1.13568       -0.80187
H         -2.63473        0.88886        0.94283
H         -0.99348       -1.92744       -0.25265
H         -0.15321       -0.17293        2.23491
H          2.02449        1.22180        1.41013
H          0.51836        2.20096       -0.69891
H          1.93791        1.31225       -1.30441
H         -0.21718       -0.01169       -2.09717
H          1.95875       -1.48556        1.06038
