19
../xyz/dsC7O2H10nsd_1839.xyz
O         -0.41088        2.08622       -0.27231
C         -0.48359        0.72928       -0.00306
C         -0.90797        0.09053        1.36430
C         -0.31367       -1.15908        0.66480
O         -1.22782       -1.39084       -0.42614
C         -1.38574       -0.06003       -0.96375
C          0.73325       -0.22912        0.04836
C          2.12153        0.08441        0.49191
C          1.84910       -0.45927       -0.90485
H          0.12736        2.50187        0.40936
H         -0.30016        0.44374        2.19970
H         -1.97014        0.06332        1.61767
H         -0.08316       -2.09301        1.17232
H         -1.03354       -0.01739       -2.00033
H         -2.43526        0.25169       -0.92067
H          2.41703        1.12757        0.57325
H          2.60579       -0.56820        1.21184
H          1.95828        0.22729       -1.73944
H          2.14584       -1.48016       -1.12235
