19

C	3.205556	0.01772	-0.359563
O	1.871766	0.487636	-0.43974
C	0.932453	-0.494832	-0.164365
C	0.526248	-0.75612	1.252955
C	-0.400365	0.011792	0.329301
C	-0.876005	1.472452	0.364494
C	-2.234968	1.022765	-0.269207
C	-1.726947	-0.433678	-0.21721
O	-2.19631	-1.503162	-0.49094
H	3.392285	-0.789489	-1.082889
H	3.856271	0.862752	-0.594372
H	3.443033	-0.354738	0.64673
H	0.913812	-1.329669	-0.867437
H	0.220159	-1.758478	1.534945
H	1.018928	-0.174194	2.025079
H	-0.973528	1.891097	1.368406
H	-0.279652	2.150083	-0.247965
H	-3.131332	1.204219	0.330063
H	-2.419453	1.382034	-1.285552
