19

C	3.19914	-0.286748	0.098473
C	1.777742	-0.116678	-0.387202
C	0.625998	-0.758462	0.363899
C	-0.631029	-1.224178	-0.365314
C	-1.802092	-0.314592	-0.013186
O	-2.922045	-0.704617	0.210266
C	-1.452569	1.176473	0.049671
O	-0.129692	1.451481	-0.38155
C	0.813825	0.742151	0.372798
H	3.62345	-1.23651	-0.243981
H	3.840717	0.521723	-0.26805
H	3.248507	-0.279001	1.192416
H	1.653373	-0.073575	-1.466479
H	0.870185	-1.298545	1.273442
H	-0.489257	-1.17038	-1.45235
H	-0.902521	-2.2533	-0.122577
H	-2.129255	1.724229	-0.612801
H	-1.632958	1.534281	1.075741
H	1.145575	1.248377	1.280082
