19

O	-0.111773	2.002795	-0.309013
C	0.047581	0.603278	-0.136133
C	0.631251	0.205601	1.2664
C	1.924515	-0.254383	0.574944
C	1.611306	-1.354017	-0.395159
C	1.330947	0.070921	-0.799499
C	-1.270976	0.010392	-0.574661
C	-2.387274	-0.176452	0.356596
O	-1.604539	-1.289905	-0.087926
H	0.759636	2.406862	-0.231767
H	0.744047	1.099052	1.884859
H	0.097914	-0.564826	1.82992
H	2.92906	-0.076138	0.938246
H	2.468111	-1.801134	-0.889469
H	0.792133	-2.03849	-0.200999
H	1.789281	0.5264	-1.670925
H	-1.501652	0.17061	-1.62862
H	-2.262166	0.092506	1.403867
H	-3.409964	-0.150008	-0.014532
