19

C	-0.901974	1.914873	-0.372137
C	-0.873856	0.449979	-0.008672
C	-1.058632	0.04988	1.483552
C	0.245604	-0.799781	1.433371
C	0.406225	-0.486753	-0.070002
O	-0.272368	-1.406833	-0.941263
C	-1.461351	-0.583426	-0.991364
C	1.732253	-0.035264	-0.59672
O	2.529086	0.595815	0.055039
H	-0.628662	2.079944	-1.419617
H	-1.906774	2.32727	-0.218658
H	-0.209281	2.488456	0.251958
H	-1.001133	0.899148	2.168225
H	-1.979415	-0.500227	1.694883
H	1.064072	-0.372752	2.016491
H	0.152228	-1.865313	1.650285
H	-1.633671	-0.199497	-2.005464
H	-2.355344	-1.123071	-0.655312
H	1.914625	-0.302868	-1.661167
