19

O	-2.976132	-0.836975	-0.07613
C	-2.314578	0.417683	-0.177664
C	-0.841964	0.168065	-0.366051
C	0.132854	1.156935	0.226249
O	1.41548	1.275656	-0.338771
C	2.191298	0.14093	-0.02519
C	1.873713	-1.169242	-0.695845
C	1.331254	-0.87155	0.690656
C	-0.01858	-0.20659	0.853499
H	-3.922876	-0.671635	-0.031941
H	-2.700679	1.002074	-1.027904
H	-2.473429	1.022668	0.730904
H	-0.583704	-0.283342	-1.317272
H	-0.223333	2.085106	0.662957
H	3.210744	0.392335	0.247656
H	1.208108	-1.181758	-1.549839
H	2.681311	-1.892182	-0.75315
H	1.701567	-1.446753	1.530268
H	-0.536471	-0.353355	1.793613
