19
../xyz/dsC7O2H10nsd_1747.xyz
C         -2.03480       -1.19111       -0.48214
C         -0.94046       -0.23999       -0.09252
C         -0.91915        0.99545        0.83621
C         -0.08786        1.78338       -0.17160
C          0.01991        0.49477       -1.05367
O          1.32107       -0.06780       -1.16837
C          1.66397       -0.86406       -0.05787
O          1.22299       -0.31598        1.16313
C         -0.18474       -0.26493        1.20160
H         -1.62712       -2.10244       -0.93586
H         -2.62583       -1.49146        0.38942
H         -2.71996       -0.73786       -1.20760
H         -1.71466        1.38314        1.46155
H         -0.65972        2.56777       -0.67292
H          0.86253        2.18852        0.18309
H         -0.35587        0.62631       -2.06998
H          1.24273       -1.87679       -0.17638
H          2.75436       -0.91368       -0.02007
H         -0.61003       -0.85431        2.01066
