19

C	0.272686	2.344409	-0.024207
O	-0.037403	1.179173	-0.762939
C	-0.388253	0.053531	-0.006236
C	0.713446	-0.421918	0.962525
C	1.98171	-0.695469	0.300385
C	3.022479	-0.919709	-0.256889
C	-0.962314	-1.068006	-0.891003
O	-2.130378	-1.179381	-0.047814
C	-1.801418	0.042519	0.641588
H	1.225886	2.254938	0.513587
H	0.358155	3.158999	-0.74661
H	-0.519507	2.596939	0.696243
H	0.855967	0.323063	1.755298
H	0.346483	-1.327187	1.461117
H	3.943129	-1.118562	-0.747107
H	-1.207648	-0.71307	-1.898864
H	-0.397078	-2.003519	-0.94885
H	-2.424502	0.885292	0.314011
H	-1.868652	-0.067373	1.730229
