19
../xyz/dsC7O2H10nsd_1957.xyz
C         -2.63193       -0.48113       -0.61234
C         -1.31608       -0.04829       -0.02910
C         -0.85998        1.40399       -0.12410
C          0.61817        1.38512        0.33920
C          1.09744       -0.03532        0.04832
C          2.46476       -0.51889        0.24265
O          1.96559       -0.25186       -1.07387
C         -0.12434       -0.90609        0.08195
O         -0.94869       -0.64744        1.23013
H         -3.46149        0.04058       -0.12237
H         -2.67634       -0.25165       -1.68203
H         -2.77938       -1.55534       -0.47699
H         -0.94253        1.73243       -1.16652
H         -1.48245        2.06974        0.48167
H          1.24091        2.11759       -0.17824
H          0.68012        1.57831        1.41304
H          3.23089        0.16922        0.59866
H          2.64527       -1.56870        0.47149
H         -0.07852       -1.93409       -0.26818
