19
../xyz/dsC7O2H10nsd_1482.xyz
C         -1.05237        1.87575        0.05534
C         -0.84212        0.36011        0.01694
C         -2.17611       -0.38132       -0.00637
C          0.27227       -0.13120        1.03750
C          0.40241       -1.61229        0.65753
O          0.33829       -1.52459       -0.79630
C          0.23140       -0.10940       -1.02727
C          1.26240        0.43384       -0.01258
O          2.27519        1.06269       -0.01137
H         -1.62383        2.20638       -0.81836
H         -1.61943        2.15908        0.94857
H         -0.11200        2.43468        0.07091
H         -2.05559       -1.44074       -0.23593
H         -2.69271       -0.28581        0.95493
H         -2.82860        0.04977       -0.77298
H          0.28863        0.14623        2.08951
H          1.35905       -2.05005        0.96435
H         -0.41230       -2.24358        1.02657
H          0.20181        0.10636       -2.09275
