19

C	-2.594045	-0.760574	-0.037819
C	-1.11459	-0.580261	0.288973
C	-0.112854	-1.381653	-0.577396
C	1.253353	-0.661882	-0.449599
C	2.113052	-1.169361	0.723959
C	0.882578	0.801738	-0.228798
O	1.596885	1.763742	-0.318448
C	-0.626007	0.856152	0.163952
O	-1.257286	1.868156	0.311053
H	-2.788851	-0.534568	-1.091286
H	-2.918135	-1.787417	0.154674
H	-3.2025	-0.082127	0.565614
H	-0.946352	-0.84704	1.345039
H	-0.056594	-2.431898	-0.278673
H	-0.448478	-1.361179	-1.62088
H	1.842329	-0.739359	-1.36843
H	3.018531	-0.564818	0.821889
H	1.570646	-1.120962	1.674258
H	2.403683	-2.210772	0.557335
