19

C	-2.220162	-0.499303	-0.246239
C	-0.745137	-0.384082	0.099967
O	-0.611851	-0.69065	1.495471
C	0.138728	-1.333516	-0.734318
C	1.607619	-1.102018	-0.476534
C	2.094587	0.042993	0.005738
C	1.239134	1.246416	0.315638
C	-0.218416	1.052343	-0.095371
O	-0.891676	1.953959	-0.531081
H	-2.810772	0.140029	0.413085
H	-2.400871	-0.181998	-1.275413
H	-2.551391	-1.533862	-0.121652
H	0.307532	-0.934759	1.655537
H	-0.138489	-2.36485	-0.482378
H	-0.084479	-1.208809	-1.803059
H	2.285668	-1.921413	-0.700428
H	3.162963	0.149386	0.176551
H	1.264743	1.467	1.392831
H	1.615199	2.145799	-0.183478
