19
../xyz/dsC7O2H10nsd_4624.xyz
C          2.63365        1.62446       -0.06836
C          1.73443        0.50035        0.41541
C          2.34827       -0.89089        0.67881
O          1.38528       -1.53462       -0.18252
C          0.87437       -0.25570       -0.64239
C         -0.56885       -0.13425       -0.57301
C         -1.76687       -0.00933       -0.51850
C         -3.21955        0.09969       -0.39955
O         -3.66840        0.32884        0.92870
H          3.25846        1.29973       -0.90774
H          2.04389        2.48569       -0.39959
H          3.29896        1.96633        0.73153
H          1.11231        0.83311        1.24935
H          3.37420       -1.00979        0.30282
H          2.29806       -1.27201        1.70466
H          1.21218       -0.05695       -1.67077
H         -3.58065        0.95109       -0.98730
H         -3.68405       -0.80141       -0.83127
H         -3.28098       -0.35558        1.48439
