19

O	2.62795	-0.094841	-0.366268
C	1.363311	-0.176384	0.302831
C	0.544478	-1.140702	-0.568974
O	-0.525053	-1.785468	0.09041
C	-1.504747	-0.92342	0.670662
C	-2.060588	0.088171	-0.291162
C	-1.495949	1.280531	-0.52154
C	-0.302836	1.827549	0.128993
C	0.831221	1.223897	0.512703
H	3.115812	0.651918	-0.004643
H	1.499726	-0.650435	1.290228
H	0.216635	-0.621887	-1.478201
H	1.223137	-1.943356	-0.868517
H	-2.290969	-1.596052	1.024072
H	-1.084312	-0.406255	1.545712
H	-2.954438	-0.18592	-0.844978
H	-1.990441	1.96039	-1.213732
H	-0.362245	2.898207	0.324904
H	1.554573	1.85801	1.03095
