19
../xyz/dsC7O2H10nsd_5995.xyz
C          3.61056       -0.42530       -0.17356
O          2.22257       -0.37684       -0.40398
C          1.55675        0.53496        0.44986
C          0.08671        0.44512        0.19784
C         -0.73723        1.46504       -0.06037
C         -2.16788        1.03640       -0.23062
C         -2.10590       -0.48773       -0.02036
O         -3.04297       -1.24026       -0.04685
C         -0.64167       -0.87450        0.23546
H          3.84286       -0.73568        0.85779
H          4.03117       -1.15750       -0.86675
H          4.08972        0.55022       -0.35288
H          1.77644        0.28177        1.50426
H          1.91484        1.56438        0.28372
H         -0.42094        2.49950       -0.14161
H         -2.86013        1.48835        0.49164
H         -2.57863        1.25921       -1.22416
H         -0.55078       -1.40127        1.19476
H         -0.28930       -1.57619       -0.52963
