19

C	1.517927	1.953036	-0.145765
C	0.415839	0.952651	-0.009449
C	-0.879266	1.17786	0.223746
C	-1.689317	-0.081944	0.386063
O	-2.839279	-0.020616	-0.453421
C	-0.689582	-1.203484	-0.003457
C	0.674721	-0.520396	-0.056507
C	1.880887	-1.14124	-0.619912
O	1.726657	-1.023614	0.795687
H	2.336398	1.709309	0.541156
H	1.93765	1.94879	-1.159213
H	1.169752	2.965499	0.071403
H	-1.339111	2.15494	0.322739
H	-2.011508	-0.186998	1.434891
H	-3.414414	-0.755722	-0.219003
H	-0.675098	-2.047657	0.690292
H	-0.974339	-1.570087	-0.994562
H	1.817429	-2.155363	-1.015244
H	2.666962	-0.527766	-1.0589
