19
../xyz/dsC7O2H10nsd_5520.xyz
O          2.38363       -0.76977       -0.20780
C          1.20280       -1.42053        0.21746
C         -0.01895       -0.83621       -0.47668
C         -1.49470       -1.12262       -0.04238
C         -1.90071        0.16079       -0.82940
C         -0.61662        0.53901       -0.02584
C         -1.28654       -0.19741        1.19208
C          0.08455        1.84654        0.05055
O          1.29035        1.96915        0.03893
H          2.24640        0.18228       -0.08459
H          1.30917       -2.47408       -0.06788
H          1.10289       -1.39997        1.31368
H          0.13980       -0.89106       -1.55941
H         -2.00892       -2.08374       -0.05871
H         -1.79496        0.12885       -1.91659
H         -2.83174        0.64421       -0.52329
H         -0.62328       -0.53755        1.98657
H         -2.18288        0.27680        1.59949
H         -0.56730        2.74187        0.14698
