19
../xyz/dsC7O2H10nsd_0463.xyz
C         -2.67403       -0.67581        0.26031
O         -2.60060        0.51793       -0.51950
C         -1.39708       -0.23487       -0.31582
C         -0.33027        0.42579        0.50775
C          0.61232        1.46852       -0.18517
C          1.86017        0.68547        0.31425
C          2.33726       -0.40636       -0.65217
O          1.31804       -1.32571       -0.18587
C          0.91744       -0.42080        0.86791
H         -2.86440       -0.52889        1.32326
H         -3.21685       -1.50263       -0.19586
H         -1.03879       -0.75167       -1.20505
H         -0.77987        0.85111        1.41082
H          0.52081        1.52025       -1.27415
H          0.51685        2.47995        0.21320
H          2.60253        1.22187        0.90263
H          2.24959       -0.19392       -1.72493
H          3.34218       -0.79649       -0.44411
H          0.97359       -0.88898        1.85487
