19

C	1.309455	1.549555	0.834353
C	0.439923	0.604857	0.025225
C	-0.717671	1.228086	-0.669607
C	-1.945967	0.73737	-0.519145
C	-2.185015	-0.503924	0.302785
O	-1.068916	-1.387341	0.315001
C	0.168089	-0.784292	0.559804
C	1.096796	-0.607755	-0.619697
O	2.475656	-0.747297	-0.45983
H	1.699202	2.352439	0.198102
H	0.733814	2.011525	1.643157
H	2.165457	1.024772	1.261978
H	-0.529468	2.112864	-1.273234
H	-2.809237	1.207435	-0.980817
H	-2.469305	-0.228546	1.333135
H	-3.013807	-1.087143	-0.111238
H	0.61893	-1.054859	1.515001
H	0.691347	-0.922254	-1.581396
H	2.665488	-1.682519	-0.328359
