19

C	2.334343	-0.015137	-0.61915
C	1.025979	-0.268969	0.070775
C	0.669044	0.302068	1.403636
C	-0.135446	0.706591	0.150253
C	-0.176147	2.133484	-0.332585
C	-1.344619	-0.14471	-0.056269
O	-2.476121	0.230304	-0.238863
C	-0.870114	-1.603774	-0.079061
O	0.544182	-1.580296	-0.176003
H	3.087904	-0.727406	-0.268279
H	2.230025	-0.135188	-1.701577
H	2.696456	0.994586	-0.410321
H	0.208703	-0.336549	2.150169
H	1.299289	1.087811	1.807279
H	0.758996	2.65733	-0.116201
H	-0.353241	2.18256	-1.411635
H	-0.99203	2.672118	0.15913
H	-1.206539	-2.126392	0.828359
H	-1.292297	-2.126245	-0.943592
