19
../xyz/dsC7O2H10nsd_1230.xyz
C         -2.98958        1.03656        0.77567
C         -2.56308        0.03325       -0.30662
O         -3.09972       -1.26509       -0.05242
C         -1.10616       -0.00018       -0.46350
C          0.09633       -0.05230       -0.54708
C          1.52237       -0.11784       -0.66565
C          2.38292        1.12926       -0.44440
C          2.40901        0.00874        0.55172
O          3.49980       -0.85974        0.58578
H         -2.66096        2.04864        0.52145
H         -4.07853        1.02664        0.87086
H         -2.54936        0.76703        1.74114
H         -3.01934        0.33256       -1.25846
H         -2.57554       -1.65616        0.65526
H          1.90750       -0.80531       -1.41301
H          3.24344        1.23476       -1.09539
H          1.87628        2.05002       -0.18038
H          1.90447        0.16790        1.50377
H          4.24049       -0.39248        0.98711
