19

C	2.23636	0.096368	-0.972232
C	1.394956	0.160183	0.292911
C	0.639541	-1.115358	0.773679
O	-0.151823	-1.526434	-0.380426
C	-0.966776	-0.374651	-0.124656
C	-2.271811	-0.211962	-0.822576
C	-0.532195	-0.217037	1.302665
C	-0.010479	0.777563	0.278764
O	-0.364068	2.109204	0.204138
H	2.483694	1.102656	-1.328781
H	3.18133	-0.42884	-0.795055
H	1.695351	-0.430706	-1.762223
H	1.95328	0.580395	1.136914
H	1.135514	-1.94027	1.280266
H	-2.726122	0.741008	-0.5362
H	-2.130262	-0.214147	-1.909445
H	-2.9652	-1.019505	-0.568811
H	-1.048733	-0.111307	2.246335
H	-0.389295	2.36792	-0.724023
