19

C	2.204781	1.147816	0.185853
C	1.515905	-0.176467	-0.098511
O	2.089047	-1.075501	-0.683322
C	0.122632	-0.357524	0.355079
C	-0.640752	0.488573	1.373155
C	-1.19376	0.391423	-0.001874
C	-1.52271	1.515648	-0.928301
O	-1.90224	-0.828571	-0.179821
C	-0.695844	-1.607451	0.068757
H	2.356598	1.271965	1.263946
H	3.17234	1.1587	-0.316876
H	1.604214	1.997747	-0.15582
H	-1.142898	-0.012907	2.196691
H	-0.169878	1.432206	1.628142
H	-0.875174	2.377653	-0.747748
H	-1.424144	1.206295	-1.972558
H	-2.558743	1.834219	-0.764543
H	-0.828462	-2.323518	0.887086
H	-0.369808	-2.121889	-0.838124
