19

C	3.141492	0.243855	-0.151579
C	1.638637	0.478705	-0.342365
C	1.227603	1.883738	0.1143
C	0.832939	-0.620039	0.404024
O	1.252205	-1.936728	0.061399
C	-0.610581	-0.46198	0.211897
C	-1.797161	-0.342644	0.012837
C	-3.213997	-0.234087	-0.222618
O	-3.881164	0.736917	0.051427
H	3.717649	0.958654	-0.746759
H	3.424992	0.380217	0.898973
H	3.42612	-0.767766	-0.446666
H	1.398397	0.374801	-1.410439
H	1.801987	2.641369	-0.427013
H	0.165524	2.075532	-0.056995
H	1.427553	2.019919	1.183715
H	1.049938	-0.528352	1.476938
H	0.970743	-2.10728	-0.844678
H	-3.664829	-1.133885	-0.688657
