19

C	-1.955804	1.035619	0.027154
O	-2.896112	0.000642	-0.3214
C	-1.957218	-1.035465	0.027561
C	-0.870673	-0.0006	0.408735
C	0.386014	-0.001412	-0.42776
C	1.587358	0.893284	0.000809
C	2.540608	-0.00074	-0.82529
C	1.588478	-0.893313	0.003666
O	1.813642	0.001927	1.164884
H	-1.715766	1.679017	-0.830741
H	-2.32232	1.665245	0.847552
H	-2.324618	-1.664256	0.848205
H	-1.718055	-1.679537	-0.830072
H	-0.604088	-0.000502	1.465573
H	0.167014	-0.003243	-1.501834
H	1.623396	1.968569	0.179407
H	2.438896	-0.002526	-1.913335
H	3.57691	0.000443	-0.487501
H	1.625812	-1.967991	0.185616
