19
../xyz/dsC7O2H10nsd_0615.xyz
C          0.71686        0.60339        1.34399
O          0.32278       -0.77309        1.32308
C          0.10348       -1.34793        0.05386
O         -1.21845       -1.09764       -0.42330
C         -1.75543        0.16989       -0.07333
C         -0.90377        1.39106       -0.46720
C          0.58174        1.27897       -0.03179
C          1.36691        0.42559       -1.00513
C          1.13214       -0.88060       -0.95647
H          0.08621        1.10362        2.08950
H          1.75982        0.66350        1.68145
H          0.14665       -2.42917        0.20775
H         -2.72604        0.21830       -0.57586
H         -1.94490        0.19827        1.00831
H         -0.94572        1.55062       -1.54940
H         -1.36321        2.26790        0.00602
H          1.01266        2.28262        0.03734
H          2.07250        0.88009       -1.69314
H          1.61580       -1.61216       -1.59383
