19
../xyz/dsC7O2H10nsd_5791.xyz
O          3.10809       -0.27210       -0.36435
C          2.17450        0.52577        0.33401
C          0.80092        0.41515       -0.30928
O          0.39877       -0.98225       -0.35395
C         -0.65182       -0.76460        0.62354
C         -2.05528       -1.04298        0.06513
C         -2.49491        0.30948       -0.44943
C         -1.62969        1.28190       -0.15853
C         -0.42043        0.77122        0.57424
H          2.68813       -1.13736       -0.45467
H          2.10702        0.23406        1.39602
H          2.53284        1.56087        0.29417
H          0.81402        0.84419       -1.31800
H         -0.43570       -1.29079        1.55838
H         -1.99975       -1.80347       -0.72282
H         -2.73808       -1.42876        0.83389
H         -3.42515        0.44927       -0.98941
H         -1.74839        2.32534       -0.42919
H         -0.18962        1.30583        1.49991
