19

O	0.977424	1.799086	-0.451475
C	1.069339	0.514341	0.058113
C	2.317965	-0.017127	0.699772
C	1.787384	-0.676982	-0.555968
C	0.612276	-1.590238	-0.190091
C	-0.152085	-0.356927	0.414191
C	-1.392352	0.010682	-0.352436
C	-2.51547	0.723584	0.265429
O	-2.592639	-0.680477	0.01003
H	1.034956	2.422569	0.280966
H	3.191369	0.608129	0.542164
H	2.293633	-0.537613	1.655514
H	2.38365	-0.732017	-1.457982
H	0.091792	-2.007247	-1.055357
H	0.838848	-2.401185	0.50865
H	-0.3947	-0.423904	1.481038
H	-1.25463	0.126565	-1.42891
H	-2.461021	1.002834	1.317482
H	-3.164512	1.349004	-0.346052
