19
../xyz/dsC7O2H10nsd_5839.xyz
C         -3.86054       -0.57018        0.26145
C         -2.47367       -0.24333       -0.03386
C         -1.32920        0.03427       -0.28758
C          0.05377        0.36132       -0.58490
O          0.33513        1.79054       -0.55099
C          1.27675        1.63668        0.52871
C          1.10748        0.10376        0.53186
C          2.31629       -0.71412        0.10527
O          1.97765       -2.04581       -0.24496
H         -4.25690       -1.30366       -0.44921
H         -3.96914       -0.98806        1.26841
H         -4.49312        0.32247        0.20355
H          0.34238       -0.06578       -1.55378
H          2.27607        2.00205        0.25771
H          0.94594        2.15154        1.43868
H          0.67307       -0.29992        1.45058
H          2.76106       -0.27660       -0.79595
H          3.08558       -0.68301        0.89409
H          1.58745       -2.46730        0.52780
