19

C	2.101913	-1.699141	-0.217865
C	1.332393	-0.531516	0.385351
C	1.688238	0.863788	-0.161969
C	0.797925	1.894928	0.459106
C	0.251287	1.061375	-0.669417
C	-0.100017	-0.336602	-0.188817
O	-1.138125	-0.46252	0.80824
C	-2.392252	-0.335506	0.359246
O	-2.719754	-0.130486	-0.778174
H	3.145975	-1.692468	0.112117
H	1.660849	-2.656194	0.080071
H	2.098762	-1.651607	-1.312568
H	1.34881	-0.589145	1.479366
H	2.615029	1.11241	-0.664261
H	0.427088	1.761295	1.47216
H	1.009642	2.925502	0.193896
H	-0.106271	1.502242	-1.590272
H	-0.325848	-1.019434	-1.010331
H	-3.08792	-0.452505	1.205481
