19

C	2.529079	0.957008	0.616516
C	1.561579	0.20427	-0.271819
O	1.90062	-1.200157	-0.41037
C	0.578122	-1.611421	-0.013565
C	0.166939	-0.157048	0.29096
C	-1.037638	0.421339	-0.45334
O	-1.058934	1.844592	-0.365612
C	-2.290361	-0.179488	0.014034
C	-3.302684	-0.661155	0.448756
H	2.583244	0.500407	1.60982
H	3.533067	0.950135	0.180897
H	2.206391	1.998368	0.722048
H	1.503465	0.685453	-1.258954
H	0.02389	-2.079356	-0.839075
H	0.596143	-2.304527	0.834511
H	0.068091	0.053335	1.360277
H	-0.919095	0.211384	-1.52413
H	-1.353111	2.076	0.522616
H	-4.205795	-1.087706	0.810595
