19
../xyz/dsC7O2H10nsd_4612.xyz
C          1.51452        2.03573        0.15375
O          1.82594        0.86762       -0.58715
C          1.17854       -0.28409       -0.12643
C          1.95930       -1.55369       -0.35464
C          1.82370       -1.01378        1.04498
C         -0.25654       -0.29907       -0.25523
C         -1.45641       -0.27431       -0.38090
C         -2.91373       -0.26709       -0.48194
O         -3.56453        0.36343        0.61378
H          1.80668        1.93346        1.20871
H          2.08108        2.85262       -0.29807
H          0.44298        2.26848        0.10650
H          1.40610       -2.44359       -0.62869
H          2.91214       -1.42296       -0.85404
H          1.17949       -1.53141        1.74572
H          2.69060       -0.52899        1.47942
H         -3.22527        0.29055       -1.37221
H         -3.26946       -1.30135       -0.61796
H         -3.21200       -0.02740        1.42002
