19
../xyz/dsC7O2H10nsd_3302.xyz
C         -2.13961       -1.37946       -0.40776
C         -1.26609       -0.20579       -0.10082
C         -1.57480        1.09546       -0.13153
C         -0.42109        1.99293        0.27285
C          0.72990        1.01631        0.48786
C          1.17687        0.18039       -0.69658
O          2.42999       -0.44684       -0.61042
C          0.16999       -0.39229        0.27075
O          0.51270       -1.51381        1.00971
H         -1.75282       -1.94655       -1.26375
H         -2.16081       -2.07465        0.43824
H         -3.16317       -1.06940       -0.63296
H         -2.53813        1.49317       -0.43168
H         -0.19289        2.73872       -0.50089
H         -0.64907        2.55780        1.18684
H          1.46900        1.19431        1.26197
H          0.86925        0.45580       -1.70589
H          3.10629        0.22385       -0.46893
H          1.41975       -1.73310        0.75402
