19
../xyz/dsC7O2H10nsd_0424.xyz
C          1.96161       -0.17453        0.95436
O          2.40665        0.00348       -0.39582
C          0.99783        0.05201       -0.12919
C          0.21624       -1.14632       -0.63291
O         -0.82847       -1.48000        0.25985
C         -2.04268       -0.79241        0.06080
C         -2.04163        0.70861        0.21246
C         -1.06266        1.60070        0.06024
C          0.38087        1.41896       -0.33433
H          2.09097       -1.17576        1.36254
H          2.20463        0.63947        1.63568
H         -0.17419       -0.96492       -1.64714
H          0.89008       -2.00715       -0.67803
H         -2.45751       -1.03897       -0.93561
H         -2.73478       -1.21941        0.79524
H         -3.03284        1.09982        0.43955
H         -1.33940        2.64598        0.18572
H          0.47333        1.66931       -1.40375
H          0.99670        2.16170        0.18493
