19
../xyz/dsC7O2H10nsd_0902.xyz
O         -3.21194       -0.67016        0.11279
C         -2.20333       -0.13092        0.48800
C         -1.36333        0.81677       -0.34695
C          0.10305        0.43483       -0.35860
C          1.17861        1.50728       -0.47603
C          1.05077        0.69088        0.78576
O          1.90633       -0.40049        0.98151
C          1.86992       -1.20314       -0.20039
C          0.50231       -0.94692       -0.87243
H         -1.80973       -0.30125        1.51710
H         -1.78545        0.85727       -1.35674
H         -1.47190        1.81700        0.09629
H          2.02644        1.34024       -1.13183
H          0.84826        2.54007       -0.43273
H          0.76496        1.15667        1.72199
H          2.69317       -0.92230       -0.87128
H          2.02086       -2.24397        0.09721
H          0.56930       -1.00583       -1.96315
H         -0.23907       -1.68534       -0.54740
