19

C	2.189024	-0.015324	1.222638
C	1.723676	-0.18765	-0.218097
C	1.062061	1.10344	-0.810586
C	-0.360156	0.784512	-0.51625
C	-1.350698	1.258563	0.228285
C	-2.270068	0.119871	0.595827
O	-1.615921	-1.063845	0.123146
C	-0.525155	-0.698779	-0.688188
O	0.726857	-1.234836	-0.287396
H	2.486724	-0.982784	1.635627
H	3.04733	0.663445	1.275633
H	1.383168	0.387993	1.844024
H	2.566868	-0.507536	-0.84081
H	1.428342	2.014195	-0.33329
H	1.258262	1.171405	-1.886699
H	-1.461958	2.259899	0.625074
H	-2.411004	0.055742	1.684009
H	-3.269951	0.191339	0.141101
H	-0.727382	-1.052053	-1.712445
