19
../xyz/dsC7O2H10nsd_5067.xyz
C         -0.50059        2.06293        0.48345
C         -0.46728        0.78664       -0.34708
C         -1.61348       -0.26150       -0.26815
O         -2.78075       -0.21388       -0.53575
C         -0.66841       -1.37684        0.07801
C          0.13091       -0.96712        1.31092
C          0.50541       -0.36504       -0.00295
C          1.84706       -0.55077       -0.64804
O          2.77081        0.45896       -0.26116
H         -1.35855        2.67829        0.19630
H         -0.58639        1.85446        1.55428
H          0.41049        2.64768        0.32447
H         -0.36349        1.04184       -1.41046
H         -0.72974       -2.41243       -0.23394
H         -0.33768       -0.37999        2.09465
H          0.78372       -1.75254        1.68188
H          2.23314       -1.55918       -0.42862
H          1.76151       -0.46281       -1.73662
H          2.86472        0.41428        0.69633
