19

O	2.616077	0.527208	-0.534654
C	1.957702	-0.293232	0.41385
C	0.457991	-0.155763	0.300161
C	-0.501056	-1.159738	0.985896
C	-1.266843	-0.996154	-0.345375
C	-2.171075	0.245767	-0.342658
C	-1.370545	1.431411	0.156722
C	-0.088728	1.251544	0.472243
O	-0.013705	-0.652527	-1.007201
H	2.235739	0.309521	-1.393926
H	2.23158	-1.352468	0.294634
H	2.29189	0.035154	1.404833
H	-0.061299	-2.155722	1.074198
H	-0.981628	-0.857743	1.917547
H	-1.742044	-1.872239	-0.794163
H	-2.546732	0.436513	-1.356576
H	-3.054045	0.07197	0.287476
H	-1.85704	2.399648	0.229902
H	0.55993	2.044917	0.825873
