19

C	2.835867	-0.085019	-0.038542
C	1.381969	-0.05397	-0.469204
C	0.599883	1.261671	-0.125269
C	-0.779307	0.750089	0.221163
C	-1.107268	0.07229	1.520749
C	-0.653982	-0.740675	0.328458
C	-1.711912	-0.774684	-0.77989
O	-1.855962	0.678216	-0.73197
O	0.670432	-1.128196	0.210383
H	3.405041	0.688076	-0.564203
H	2.920308	0.090951	1.038542
H	3.285377	-1.055395	-0.265751
H	1.313492	-0.232491	-1.552698
H	1.068841	1.783047	0.715334
H	0.570363	1.945568	-0.976213
H	-0.366617	0.165881	2.306782
H	-2.141576	0.028412	1.848728
H	-1.30524	-1.101167	-1.743665
H	-2.657257	-1.291245	-0.578953
