19
../xyz/dsC7O2H10nsd_3691.xyz
O         -2.64402        0.72321       -0.66361
C         -1.88767       -0.42980       -0.43346
C         -1.66313       -0.90251        0.97796
C         -0.53335       -0.24072        0.20231
C          0.70532       -1.01268       -0.26622
C          1.80818        0.06543       -0.47791
O          3.06169       -0.27409        0.10867
C          1.23590        1.28447        0.19937
C         -0.03908        1.11802        0.54711
H         -3.56591        0.51425       -0.47927
H         -1.95989       -1.18924       -1.21405
H         -2.12338       -0.32151        1.77111
H         -1.59833       -1.96942        1.16862
H          1.05655       -1.68396        0.52465
H          0.51709       -1.61335       -1.16140
H          1.95633        0.26934       -1.55157
H          3.47459       -0.94366       -0.44553
H          1.82270        2.18518        0.33306
H         -0.67815        1.86612        0.99904
