19

C	-2.846889	0.338158	0.134565
O	-1.741404	-0.505047	-0.09357
C	-0.581071	0.17875	-0.473637
C	0.254943	0.858642	0.646678
C	1.373247	1.513812	-0.204855
C	1.807544	0.060554	-0.470953
C	1.254919	-0.366678	0.906808
O	0.679979	-1.570658	0.397284
C	0.54034	-0.813784	-0.836754
H	-3.097414	0.934211	-0.757655
H	-3.696225	-0.304284	0.378612
H	-2.678163	1.031245	0.972179
H	-0.800142	0.887251	-1.287652
H	-0.266019	1.387869	1.441531
H	1.068665	2.15226	-1.039431
H	2.122006	2.03459	0.398333
H	2.774666	-0.246822	-0.864717
H	1.798909	-0.455298	1.845746
H	0.446919	-1.432113	-1.727773
