19

C	-2.326044	-1.39124	-0.177758
O	-1.008338	-1.126278	0.261047
C	-0.362288	-0.048028	-0.408577
C	-1.051787	1.231419	-0.193506
C	-1.623327	2.276245	-0.032233
C	1.056745	-0.034496	0.138664
O	1.106704	0.098322	1.526238
C	2.148538	0.640645	-0.620417
C	2.107405	-0.875617	-0.544609
H	-2.345979	-1.651891	-1.246836
H	-2.686438	-2.244104	0.401541
H	-2.989987	-0.533187	-0.012943
H	-0.327903	-0.251821	-1.491502
H	-2.116279	3.205039	0.118295
H	0.513099	-0.576602	1.879299
H	1.908165	1.12458	-1.560832
H	2.894062	1.152371	-0.023122
H	1.840953	-1.434338	-1.435436
H	2.827928	-1.359966	0.103877
