19
../xyz/dsC7O2H10nsd_4075.xyz
C          2.83818       -0.08155        0.63658
C          1.71815        0.11093       -0.35742
O          0.91163       -1.13291       -0.48528
C         -0.33335       -0.72010        0.04593
C         -1.87349       -0.76777       -0.30792
C         -2.50151       -0.06288        0.86292
C         -1.89487        0.79475       -0.21218
C         -0.38071        0.68945       -0.41248
O          0.86966        1.20216        0.06356
H          3.48791       -0.89750        0.31000
H          3.43068        0.83469        0.71227
H          2.43190       -0.32173        1.62211
H          2.09430        0.31472       -1.36967
H         -0.27684       -0.81801        1.13769
H         -2.40639       -1.40013       -1.00413
H         -3.58720       -0.03719        0.87852
H         -2.05433       -0.14937        1.85027
H         -2.50844        1.47859       -0.78595
H         -0.29630        0.66495       -1.50995
