19
../xyz/dsC7O2H10nsd_2069.xyz
C         -0.27266        2.13392       -0.48226
C         -0.42993        0.71652        0.00776
C         -1.47134        0.37009        1.07280
C         -1.59362       -0.17973       -0.32102
O         -1.17416       -1.49998       -0.56533
C          0.15917       -1.64036       -0.09026
C          0.74586       -0.22596        0.00596
C          2.08682        0.11921       -0.47821
O          1.82526       -0.04430        0.92270
H          0.09029        2.16687       -1.51529
H         -1.22813        2.66576       -0.44714
H          0.43456        2.68860        0.14530
H         -1.19782       -0.29573        1.88402
H         -2.15290        1.16544        1.35592
H         -2.40980        0.11367       -0.97121
H          0.18081       -2.10495        0.90579
H          0.70419       -2.29035       -0.78081
H          2.70813       -0.65311       -0.93152
H          2.31612        1.13603       -0.79248
