19
../xyz/dsC7O2H10nsd_2359.xyz
C         -0.78641        1.97758       -0.50327
C         -0.61777        0.58549        0.06091
C         -1.87958       -0.12268        0.60476
O         -1.61554       -1.32392       -0.15312
C         -0.44058       -0.75056       -0.75099
C          0.81347       -1.08670        0.06640
O          2.00613       -0.56047       -0.54557
C          1.98434        0.60909        0.30521
C          0.62946        0.21688        0.91415
H          0.09890        2.31076       -1.05266
H         -1.63697        2.01862       -1.19178
H         -0.97255        2.70344        0.29812
H         -1.91277       -0.30884        1.68609
H         -2.82416        0.34364        0.29443
H         -0.39984       -0.85405       -1.83851
H          0.92419       -2.10346        0.45145
H          2.81175        0.58793        1.02659
H          2.04038        1.54273       -0.26640
H          0.52873        0.25981        1.99915
