19
../xyz/dsC7O2H10nsd_2953.xyz
C         -3.10078        0.18009       -0.28098
C         -1.63045       -0.13686       -0.43545
C         -0.83039       -0.56722        0.75874
O          0.29764       -1.38441        0.51146
C          1.26876       -0.68737       -0.15330
O          2.30515       -1.18926       -0.47448
C          0.81273        0.76304       -0.39503
C          1.78715        1.74662        0.26743
C         -0.59483        0.79887        0.16804
H         -3.43188        0.89828       -1.03842
H         -3.71165       -0.72301       -0.38089
H         -3.31053        0.61690        0.70119
H         -1.35265       -0.61746       -1.37166
H         -1.28112       -0.76145        1.72423
H          0.83140        0.92346       -1.47922
H          1.51649        2.77832        0.02515
H          1.77741        1.63806        1.35675
H          2.80426        1.55954       -0.08519
H         -0.93734        1.69375        0.67553
