19

C	1.980575	1.137128	-0.300923
C	1.311142	-0.070919	0.335282
O	0.984939	-1.059432	-0.669154
C	-0.391977	-1.415886	-0.472249
C	-0.580231	-1.283375	1.049424
C	-0.042288	0.166492	1.061419
C	-0.976851	0.826271	0.041022
O	-1.400804	1.951263	0.0533
C	-1.259067	-0.265465	-1.012214
H	2.285518	1.852382	0.469907
H	2.873249	0.819843	-0.846961
H	1.314704	1.65024	-0.999959
H	2.007288	-0.528716	1.053751
H	-0.565297	-2.394403	-0.919576
H	-1.620483	-1.372117	1.373356
H	0.042383	-1.979167	1.616496
H	0.037351	0.698405	2.007677
H	-2.327708	-0.508998	-1.025469
H	-0.967904	0.062411	-2.012957
