19

C	3.874651	-0.139489	-0.224707
C	2.394918	0.096734	-0.533641
C	1.469342	-0.374692	0.605217
C	0.02392	-0.134923	0.337771
C	-1.03792	-0.965828	0.136289
C	-2.173031	-0.118297	-0.091144
O	-3.460169	-0.485355	-0.337204
C	-1.724446	1.163068	-0.013667
O	-0.379066	1.158778	0.249367
H	4.510861	0.202684	-1.046612
H	4.181775	0.397381	0.679811
H	4.082715	-1.203346	-0.063339
H	2.214712	1.161948	-0.715556
H	2.115804	-0.425226	-1.456807
H	1.610404	-1.447234	0.778941
H	1.759941	0.134241	1.534469
H	-1.018994	-2.045557	0.149941
H	-3.509682	-1.445165	-0.343782
H	-2.198258	2.123446	-0.111071
