19
../xyz/dsC7O2H10nsd_0844.xyz
O         -2.91198       -0.56824        0.50932
C         -2.36677        0.03880       -0.37853
C         -0.88236        0.09829       -0.60467
C         -0.24986        1.49579       -0.27707
C          0.69685        0.81156        0.74779
C          2.13784        0.58812        0.27381
O          2.08619       -0.50803       -0.63349
C          1.15418       -1.43109       -0.07747
C          0.01308       -0.57262        0.46511
H         -2.96133        0.64520       -1.10169
H         -0.67491       -0.21703       -1.63393
H          0.24729        1.98464       -1.11816
H         -0.95170        2.20317        0.17271
H          0.64623        1.20451        1.76400
H          2.57069        1.44098       -0.25727
H          2.78513        0.34685        1.13317
H          0.85690       -2.12395       -0.87007
H          1.62056       -2.00953        0.73707
H         -0.55031       -1.03770        1.27364
