19

C	-2.52351	1.423402	-0.055145
C	-1.518429	0.402576	0.463144
C	-1.758639	-1.071532	-0.009764
C	-0.374588	-1.077434	-0.688655
O	0.686372	-1.533058	0.189506
C	1.020236	-0.174668	0.554171
C	2.418469	0.171437	0.077453
O	2.76405	1.275029	-0.255995
C	-0.141246	0.402675	-0.267186
H	-2.216692	2.444865	0.194327
H	-2.623979	1.362348	-1.145068
H	-3.51437	1.252371	0.37942
H	-1.41983	0.504196	1.549129
H	-1.879048	-1.830306	0.766291
H	-2.586434	-1.154861	-0.720938
H	-0.271374	-1.4884	-1.695762
H	0.974718	-0.009258	1.642724
H	3.106467	-0.703765	0.055262
H	0.0934	1.228304	-0.937583
