19
../xyz/dsC7O2H10nsd_3861.xyz
C          2.75928        0.51207       -0.82782
C          1.89402       -0.21649        0.19197
C          0.88590        0.70113        0.97523
C         -0.27014       -0.06992        0.33182
O         -0.10941       -1.46240        0.65678
C          0.68039       -0.95284       -0.40515
C         -1.60578        0.43987       -0.07621
C         -2.63063       -0.58453       -0.51421
O         -1.82843        1.63152       -0.04520
H          3.48351        1.16221       -0.32726
H          3.31690       -0.19409       -1.45270
H          2.15075        1.13857       -1.48970
H          2.50164       -0.86708        0.82780
H          0.91557        0.65993        2.06580
H          0.91862        1.73963        0.64145
H          0.57976       -1.42688       -1.37691
H         -2.92253       -1.20139        0.34226
H         -3.50458       -0.07110       -0.91636
H         -2.21505       -1.26836       -1.26082
