19
../xyz/dsC7O2H10nsd_0478.xyz
C         -2.49947        0.15806        0.00007
C         -1.35217        1.18607       -0.00007
C         -0.44498       -0.05361       -0.00004
O         -1.56681       -0.94491       -0.00006
C          0.69805       -0.40270       -0.98027
C          1.70038        0.75119       -0.78373
C          1.70033        0.75122        0.78376
C          0.69798       -0.40265        0.98029
O          1.15705       -1.38537        0.00004
H         -3.13574        0.15218        0.89258
H         -3.13600        0.15217       -0.89225
H         -1.28075        1.81524       -0.88964
H         -1.28063        1.81543        0.88935
H          0.51784       -0.80927       -1.97514
H          2.67601        0.50435       -1.20635
H          1.36153        1.69569       -1.21891
H          2.67593        0.50438        1.20644
H          1.36147        1.69574        1.21888
H          0.51771       -0.80919        1.97516
