19

C	-0.915834	2.122448	-0.540376
C	0.005648	1.302433	0.35725
C	1.314022	0.82903	-0.29353
C	2.109255	0.011398	0.7007
C	0.951964	-0.618983	-0.016472
O	1.094339	-1.703349	-0.864963
C	-0.391449	-0.215001	0.626098
C	-1.586859	-0.698485	-0.152885
O	-2.580141	-1.157223	0.354392
H	-1.909758	2.235953	-0.095502
H	-0.497525	3.12404	-0.685793
H	-1.037011	1.67264	-1.530285
H	0.1621	1.839951	1.299608
H	1.775855	1.273081	-1.167164
H	3.077749	-0.318423	0.337565
H	2.069707	0.236286	1.764814
H	1.3569	-2.469597	-0.342181
H	-0.534825	-0.488656	1.675794
H	-1.497261	-0.617736	-1.257001
