18

O	3.101606	0.233421	-0.209159
C	2.037645	-0.628642	0.161812
C	0.683539	-0.178733	-0.390168
C	0.212038	1.194128	0.182062
O	-1.270848	0.970497	0.454658
C	-1.906602	0.609627	-0.819346
C	-1.85038	-0.76229	-0.427856
C	-1.412077	-0.478655	0.972085
H	-0.44543	-1.137853	0.003169
H	2.941233	1.091999	0.195107
H	2.300051	-1.610603	-0.246641
H	1.972713	-0.737827	1.257659
H	0.770624	-0.112188	-1.479545
H	0.726211	1.43012	1.125353
H	0.372385	2.02346	-0.512073
H	-1.810463	1.776309	0.954702
H	-2.578217	-1.443736	-0.85249
H	-1.739558	-0.834185	1.938592
