19

C	-1.847548	0.171091	1.65748
C	-0.999825	0.209066	0.385224
O	0.125041	-0.628904	0.594543
C	1.189663	-0.453069	-0.340535
C	2.17796	-1.594921	-0.10387
C	1.827878	0.862423	-0.19725
C	2.355387	1.935756	-0.076869
C	-1.831785	-0.304107	-0.788268
O	-2.565651	0.377239	-1.453851
H	-2.173226	-0.851342	1.872863
H	-1.253711	0.528125	2.502241
H	-2.728662	0.806688	1.540452
H	-0.691226	1.240843	0.171885
H	0.79506	-0.529547	-1.367429
H	1.669659	-2.552464	-0.240832
H	3.012668	-1.525933	-0.805236
H	2.567834	-1.543579	0.915382
H	2.820056	2.88566	0.024994
H	-1.723949	-1.402574	-0.955322
