19

C	2.855012	-1.015276	-0.105595
C	1.512539	-0.36566	-0.004533
C	0.358714	-0.79096	-0.532683
C	-0.740671	0.193107	-0.292774
C	-2.191152	-0.215036	-0.255605
O	-2.415457	-1.321626	0.603594
O	-0.479884	1.491565	-0.88598
C	-0.139216	1.294711	0.488506
C	1.325517	0.956703	0.728603
H	3.562791	-0.376159	-0.648832
H	3.289837	-1.186428	0.887493
H	2.798955	-1.975213	-0.625512
H	0.218922	-1.707791	-1.09253
H	-2.803888	0.658639	0.010467
H	-2.508786	-0.544931	-1.251056
H	-2.115911	-1.073474	1.484355
H	-0.697046	1.903551	1.196837
H	1.990519	1.738794	0.341587
H	1.542873	0.857966	1.800762
