19
../xyz/dsC7O2H10nsd_3164.xyz
C          2.26872       -0.63246       -0.27244
C          1.01682       -0.46435        0.59544
C          0.58179        1.00212        0.69536
O          0.40574        1.72518       -0.53241
C         -0.75682        1.34392        0.19091
C         -1.53244        0.14149       -0.34769
C         -1.51130       -0.95644        0.74011
C         -0.16460       -1.28926        0.05503
O         -0.65066       -0.65973       -1.16657
H          2.59367       -1.67790       -0.29319
H          2.05239       -0.31164       -1.29405
H          3.09790       -0.02823        0.10873
H          1.22915       -0.80924        1.61726
H          1.03579        1.59455        1.48891
H         -1.33422        2.15714        0.62990
H         -2.46123        0.40218       -0.86068
H         -1.50796       -0.64923        1.78903
H         -2.25863       -1.73189        0.56704
H          0.09960       -2.33954       -0.10142
