19

C	-2.305556	-0.325562	0.389855
C	-1.984663	0.732192	-0.662023
C	-0.892936	-0.045498	-0.004309
O	-0.187998	-1.031484	-0.754379
C	1.134914	-0.988862	-0.211043
C	1.859583	0.249068	-0.772916
C	1.163936	1.369862	0.059856
C	0.187737	0.523284	0.908126
O	0.953486	-0.673036	1.155944
H	-2.652981	7.7e-05	1.364971
H	-2.733198	-1.25848	0.039932
H	-2.209711	0.492257	-1.69513
H	-2.114111	1.778256	-0.401213
H	1.610943	-1.960951	-0.332872
H	2.932973	0.196567	-0.574682
H	1.704612	0.344561	-1.848856
H	1.873304	1.894687	0.70308
H	0.645032	2.105575	-0.55773
H	-0.158842	0.956706	1.844706
