19
../xyz/dsC7O2H10nsd_0245.xyz
C          2.42150        0.28716        0.25214
C          1.50215       -0.40736       -0.71467
O          0.62632       -1.36683       -0.18801
C         -0.33356       -0.76431        0.68014
O         -1.63947       -0.99923        0.23708
C         -1.99616        0.06040       -0.64890
C         -1.40023        1.31446        0.00467
C         -0.09717        0.78437        0.64760
C          1.14056        0.95971       -0.21401
H          2.47078       -0.09538        1.26693
H          3.35526        0.68674       -0.12924
H          1.80729       -0.62525       -1.73188
H         -0.24637       -1.23783        1.66151
H         -1.57312       -0.11252       -1.64874
H         -3.08536        0.07348       -0.73032
H         -1.22141        2.12233       -0.70953
H         -2.07829        1.68890        0.77660
H          0.04116        1.18352        1.65528
H          1.21273        1.83788       -0.84505
