19

O	2.239222	-1.199251	-0.492431
C	1.000611	-1.033906	0.120693
C	0.739419	0.116113	1.033827
O	1.52768	1.229861	0.589687
C	0.775528	1.280535	-0.661136
C	-0.015595	0.026033	-0.294947
C	-1.434697	-0.246176	-0.632553
C	-2.544494	0.605398	-0.057614
C	-2.378423	-0.82078	0.398208
H	2.767681	-0.43237	-0.230926
H	0.547817	-1.979667	0.405268
H	0.446919	0.091151	2.078611
H	0.165221	2.188593	-0.695988
H	1.428448	1.225962	-1.539095
H	-1.591029	-0.596119	-1.650675
H	-2.267104	1.3894	0.639008
H	-3.386486	0.850039	-0.695175
H	-1.997939	-0.98708	1.400527
H	-3.102839	-1.558088	0.071535
