19
../xyz/dsC7O2H10nsd_2102.xyz
C          2.03502       -1.42352        0.03741
C          0.71497       -0.71757       -0.04797
C         -0.57897       -1.24181       -0.68126
C         -1.27869       -0.05691        0.03203
O         -2.62944       -0.04811        0.32933
C         -0.72399        1.19715       -0.68341
C          0.60945        0.81241       -0.04831
O          1.77127        1.55679       -0.01566
C         -0.04743        0.00633        1.05387
H          1.93502       -2.39665        0.53113
H          2.45422       -1.59718       -0.96057
H          2.75847       -0.82527        0.59764
H         -0.66316       -1.29941       -1.77350
H         -0.85958       -2.20488       -0.23698
H         -2.85912       -0.89769        0.72082
H         -0.81102        1.23997       -1.77495
H         -1.13475        2.10694       -0.23354
H          1.61068        2.34384        0.51620
H          0.05249        0.00427        2.13017
