19
../xyz/dsC7O2H10nsd_2541.xyz
C          2.73101       -0.64663       -0.14364
C          1.26483       -0.45669        0.03433
C          0.21585       -1.13593       -0.43737
C         -1.01836       -0.33202       -0.03724
C         -2.35125       -1.02344        0.08386
C         -0.95221        0.97360       -0.90262
O          0.19784        1.63680       -0.37013
C          0.62049        0.76071        0.70617
O         -0.58323        0.25268        1.21678
H          3.16964        0.20903       -0.67220
H          3.24615       -0.71807        0.82246
H          2.95375       -1.55046       -0.71684
H          0.20775       -1.99687       -1.09322
H         -2.66843       -1.41248       -0.88879
H         -2.28638       -1.86063        0.78396
H         -3.11458       -0.32712        0.44266
H         -0.82584        0.77460       -1.97181
H         -1.84264        1.59221       -0.74127
H          1.18159        1.33630        1.44098
