19
../xyz/dsC7O2H10nsd_0506.xyz
C          2.09922       -0.42655       -0.41139
O          1.82434        0.88268        0.19319
C          0.43883        0.54985        0.20633
C         -0.00977       -0.46204        1.31913
C         -0.45366       -1.34212        0.12261
C         -1.78582       -0.71527       -0.36959
O         -1.88694        0.68949       -0.09524
C         -0.69087        1.48159       -0.14669
C          0.60065       -0.63765       -0.75824
H          2.76219       -0.32336       -1.27447
H          2.54643       -1.11977        0.30985
H          0.84837       -0.85970        1.86108
H         -0.78161       -0.14034        2.01957
H         -0.52101       -2.43031        0.21134
H         -1.91619       -0.90723       -1.44624
H         -2.63455       -1.16195        0.15867
H         -0.53841        1.91712       -1.14553
H         -0.83639        2.29590        0.57241
H          0.38046       -0.53465       -1.82325
