19

C	3.061577	-0.288607	-0.063611
C	1.613336	-0.041183	-0.418651
C	0.713478	0.762771	0.477536
O	-0.209416	1.603262	-0.148523
C	-1.567055	1.213691	0.054668
C	-1.830931	-0.189978	-0.468521
O	-1.912558	-1.238473	0.50041
C	-0.743464	-1.176221	-0.326436
C	0.506534	-0.732699	0.355941
H	3.432284	-1.21087	-0.524027
H	3.697276	0.53626	-0.402727
H	3.19237	-0.385962	1.019332
H	1.409666	0.113605	-1.475213
H	1.112313	1.156707	1.412108
H	-1.83613	1.258682	1.119039
H	-2.164431	1.950514	-0.48821
H	-2.534891	-0.289637	-1.293431
H	-0.667155	-1.98974	-1.047508
H	0.813638	-1.344515	1.199988
