19

C	2.411135	-0.301092	-0.469208
C	1.954011	-0.095033	0.964435
C	0.970238	-0.055045	-0.175593
C	0.293822	1.229926	-0.571357
O	-0.849682	1.486881	0.239152
C	-1.618301	0.364171	0.557063
C	-2.277641	-0.518408	-0.479512
C	-1.097089	-1.026438	0.327162
O	0.122989	-1.165015	-0.358098
H	2.984268	0.481233	-0.955476
H	2.672599	-1.309865	-0.767978
H	1.928657	-0.969108	1.604723
H	2.208769	0.832703	1.465434
H	0.958001	2.087785	-0.436722
H	0.007662	1.177716	-1.633386
H	-2.170825	0.55317	1.471644
H	-3.270893	-0.900981	-0.271002
H	-2.072009	-0.32237	-1.525956
H	-1.24973	-1.793694	1.082349
