19

O	2.263244	-1.325032	-0.055846
C	1.006003	-1.144826	-0.657836
C	0.206532	0.000391	0.004002
O	0.128789	-0.38021	1.391259
C	0.913754	1.28014	-0.119733
C	1.457158	2.349297	-0.201311
C	-1.184617	0.106651	-0.621054
C	-2.352304	0.638974	0.163333
C	-2.286259	-0.826049	-0.192025
H	2.091829	-1.353882	0.893762
H	1.173957	-0.914394	-1.713603
H	0.38412	-2.051083	-0.595515
H	0.119903	0.424986	1.918178
H	1.954795	3.284377	-0.28127
H	-1.148626	0.375849	-1.672596
H	-2.188377	0.899198	1.203032
H	-3.064514	1.274156	-0.350602
H	-2.064901	-1.51368	0.615555
H	-2.956052	-1.211068	-0.952501
