19
../xyz/dsC7O2H10nsd_3630.xyz
C          2.46174       -1.31659       -0.25111
C          1.18565       -0.64049        0.13650
C         -0.02330       -1.18932        0.28677
C         -1.09910       -0.19009        0.66099
C         -0.28198        1.10441        0.92826
C          1.13543        0.86108        0.34877
O          1.40875        1.57106       -0.86007
C         -2.07351       -0.02893       -0.49551
O         -3.21849       -0.39308       -0.50161
H          3.20152       -1.24741        0.55651
H          2.31127       -2.37304       -0.48685
H          2.90518       -0.82087       -1.12182
H         -0.25307       -2.23960        0.13900
H         -1.68268       -0.51243        1.52892
H         -0.72509        2.00016        0.48263
H         -0.22849        1.27434        2.00664
H          1.91443        1.21055        1.03500
H          0.82417        1.22104       -1.54267
H         -1.61894        0.46295       -1.39197
