19
../xyz/dsC7O2H10nsd_4226.xyz
C          2.59115        0.68564        0.06023
C          1.38352       -0.22026        0.31092
C          0.82810       -0.88338       -0.98796
C         -0.68158       -0.80938       -0.80959
O         -1.03819       -1.52025        0.42454
C         -1.10718       -0.27462        1.11873
C          0.16907        0.53891        0.85961
C         -0.97013        0.55600       -0.11980
O         -1.55758        1.68955       -0.63069
H          2.96372        1.12197        0.99312
H          3.41364        0.12459       -0.39653
H          2.33171        1.50896       -0.61482
H          1.67228       -1.00583        1.01764
H          1.12046       -0.30632       -1.87507
H          1.17813       -1.91090       -1.12156
H         -1.30160       -1.13078       -1.64959
H         -1.70627       -0.21701        2.01982
H          0.30068        1.40688        1.49796
H         -2.48419        1.49666       -0.81456
