19
../xyz/dsC7O2H10nsd_1560.xyz
C          1.27470       -0.85320        1.35041
C          0.79810       -0.39484       -0.03499
O          1.92047       -0.26784       -0.89662
C         -0.26010       -1.30911       -0.69403
C         -1.60016       -0.57252       -0.61438
C         -2.07725       -0.14638        0.73025
C         -1.35415        0.86563       -0.15694
C          0.10973        0.99821        0.02516
O          0.75464        2.02097        0.07430
H          1.92060       -0.08844        1.79275
H          0.45050       -1.04771        2.04323
H          1.85489       -1.77364        1.23768
H          2.27496        0.61824       -0.72972
H          0.02902       -1.44391       -1.73914
H         -0.30925       -2.29885       -0.22912
H         -2.33737       -0.76699       -1.38462
H         -3.13781        0.04126        0.85571
H         -1.58676       -0.51349        1.62403
H         -1.90482        1.72170       -0.52510
