19

C	2.81173	-0.830542	0.677684
C	2.302792	0.007481	-0.51276
C	0.998418	0.697494	-0.1799
O	0.910926	1.866283	0.120489
C	-0.278384	-0.184216	-0.220987
O	-0.191888	-1.348828	-0.558997
C	-1.544376	0.474977	0.160801
C	-2.814024	-0.005637	-0.535953
C	-2.580937	-0.383269	0.881602
H	2.102252	-1.62324	0.925944
H	3.767956	-1.296435	0.424957
H	2.963203	-0.204757	1.562356
H	3.027232	0.783277	-0.772792
H	2.147987	-0.650545	-1.372474
H	-1.466362	1.519519	0.427123
H	-3.555638	0.749866	-0.767536
H	-2.672055	-0.772787	-1.288762
H	-3.156024	0.103065	1.660843
H	-2.282168	-1.405331	1.085484
