19

C	-2.870564	-0.536083	0.05011
C	-1.499386	0.062732	0.162861
C	-1.177281	1.481357	-0.201784
C	-0.454142	0.362905	-0.915968
C	0.672085	-0.240907	-0.050737
O	1.153438	-1.44818	-0.569107
C	-0.391385	-0.466526	1.092378
C	1.836152	0.666406	0.269763
O	2.982784	0.312847	0.115688
H	-3.464493	-0.33834	0.950862
H	-3.414918	-0.115828	-0.801963
H	-2.820657	-1.622107	-0.084708
H	-1.921635	1.985908	-0.810619
H	-0.669033	2.142805	0.495526
H	-0.500567	0.226367	-1.989961
H	2.121278	-1.372398	-0.543356
H	-0.449487	-1.540609	1.275733
H	-0.256599	0.061665	2.043169
H	1.593453	1.675907	0.652947
