19

C	0.567078	1.914225	0.373437
C	-0.164902	0.660521	-0.003436
O	-1.436293	0.914649	-0.53171
C	-2.245622	-0.259732	-0.405764
C	-1.611176	-1.119398	0.71011
C	-0.175189	-0.629303	0.724005
C	0.556183	-0.58469	-0.623228
C	2.026056	-0.658433	-0.616146
O	2.730993	-0.420535	0.342571
H	1.563894	1.67826	0.746342
H	0.656173	2.579367	-0.490818
H	0.010663	2.444416	1.152744
H	-3.267267	0.060141	-0.184904
H	-2.261963	-0.80186	-1.360469
H	-2.071421	-0.911894	1.681735
H	-1.716707	-2.189365	0.510151
H	0.460409	-0.784221	1.588214
H	0.074546	-1.014979	-1.495163
H	2.479508	-0.951923	-1.588595
