19

O	-2.719775	-0.443963	-0.481747
C	-1.583626	-0.188354	0.304965
C	-1.08377	1.292874	0.131214
C	0.313328	0.691163	0.06374
C	0.911406	0.029027	1.35324
C	1.123857	-1.124212	0.33942
C	2.078286	-0.36417	-0.644153
O	1.458607	0.96283	-0.723947
C	-0.216501	-0.700701	-0.319744
H	-2.934268	-1.379604	-0.401853
H	-1.754043	-0.46416	1.352043
H	-1.426025	1.662726	-0.838854
H	-1.311792	2.019214	0.914379
H	1.795462	0.516698	1.77049
H	0.19	-0.192521	2.13846
H	1.428554	-2.137071	0.611658
H	3.093539	-0.269843	-0.245731
H	2.117785	-0.805667	-1.646077
H	-0.367756	-0.91448	-1.381053
