19

C	-0.862864	-0.925511	-1.094351
C	-1.526684	0.32399	-0.538386
C	-1.132198	0.331827	0.922417
O	-0.403813	-0.823792	1.240688
C	0.127068	-1.362378	0.018927
C	1.567535	-0.856818	-0.180058
C	1.705176	0.623148	0.185072
O	0.753276	1.44211	-0.481531
C	-0.56403	1.374879	-0.020933
H	-1.619348	-1.698607	-1.259297
H	-0.345547	-0.749557	-2.041547
H	-2.510573	0.60396	-0.896561
H	-1.781051	0.633036	1.737008
H	0.135049	-2.450064	0.133812
H	2.250047	-1.429638	0.459214
H	1.873918	-1.028543	-1.218175
H	1.614009	0.74611	1.270946
H	2.6855	1.00035	-0.120759
H	-0.981722	2.371578	0.105976
