19

C	-2.954342	0.21296	-0.459899
O	-1.795007	-0.600623	-0.404289
C	-0.620775	0.134419	-0.47255
C	-0.036231	0.751979	0.768545
O	0.602263	1.983777	0.708039
C	0.61336	-0.503141	0.162733
C	0.470471	-1.829997	0.892699
C	1.869671	-0.268784	-0.492594
C	2.938657	-0.012559	-0.986115
H	-3.013498	0.762129	-1.410759
H	-3.815708	-0.453574	-0.379367
H	-2.977763	0.940209	0.363265
H	-0.459785	0.684491	-1.40127
H	-0.575538	0.58239	1.69877
H	1.524541	1.831586	0.461287
H	0.610555	-2.665913	0.201093
H	1.217527	-1.913674	1.687441
H	-0.526194	-1.918155	1.327292
H	3.872953	0.176012	-1.454667
