19
../xyz/dsC7O2H10nsd_2753.xyz
C          2.40503       -0.97747        0.68308
C          0.94768       -0.56822        0.62726
C          0.15671       -0.95789       -0.63059
C         -1.28878       -0.70992       -0.34374
O         -2.29127       -1.36413       -0.41313
C         -1.01130        0.79498       -0.02500
O         -1.45045        1.41292        1.15339
C          0.48964        0.52425       -0.28064
C          1.37855        1.50479       -0.99118
H          2.88138       -0.93461       -0.30030
H          2.96789       -0.32444        1.35864
H          2.50092       -2.00341        1.05189
H          0.44475       -0.68640        1.58723
H          0.58671       -1.62061       -1.37159
H         -1.42342        1.38810       -0.85146
H         -1.31010        0.81191        1.89177
H          2.36058        1.08570       -1.22440
H          0.92344        1.83721       -1.93039
H          1.53649        2.39312       -0.36867
