19

C	-2.200626	-0.765681	-0.871624
C	-1.420933	0.263464	-0.068445
O	-1.907966	1.334449	0.212367
C	0.00261	-0.116159	0.352045
C	-0.024366	-1.165669	1.468906
C	0.909316	1.143376	0.604943
C	1.756133	0.729441	-0.602496
O	2.251081	-0.596233	-0.349907
C	0.924146	-0.454327	-0.856871
H	-3.263126	-0.520865	-0.843804
H	-1.864963	-0.725737	-1.915505
H	-2.03718	-1.787802	-0.521361
H	-0.486411	-0.755212	2.372449
H	-0.578665	-2.065095	1.183047
H	1.001475	-1.458521	1.704452
H	0.346863	2.066865	0.463022
H	1.44462	1.172004	1.556675
H	2.330436	1.345145	-1.28448
H	0.684358	-0.983178	-1.772927
