19
../xyz/dsC7O2H10nsd_2067.xyz
O         -1.75493       -1.28498       -0.61335
C         -0.94098       -0.38347        0.08847
C         -1.70710        0.67869        0.80852
C         -0.86935        1.05425       -0.40039
C          0.46194        1.76326       -0.21403
O          1.56263        0.88811       -0.46761
C          1.60399       -0.19459        0.41026
C          1.38613       -1.54543       -0.19942
C          0.31227       -0.93711        0.68914
H         -1.20603       -1.71148       -1.28088
H         -2.78400        0.65653        0.68766
H         -1.36004        0.99987        1.78618
H         -1.41123        1.26266       -1.31659
H          0.57352        2.58461       -0.92604
H          0.54588        2.18343        0.79926
H          2.32219       -0.08384        1.22171
H          1.22953       -1.54615       -1.27346
H          1.93710       -2.39767        0.18182
H          0.21003       -1.38668        1.67275
