19

C	-2.587322	-0.349032	-0.4459
C	-2.048137	-0.461048	0.974236
C	-1.156285	-0.054949	-0.17109
C	0.033103	-0.878196	-0.629258
C	1.194916	-0.029322	-0.1213
C	2.608037	-0.293309	-0.39524
O	2.043805	-0.568554	0.892876
C	0.606392	1.363421	0.139918
O	-0.756605	1.296499	-0.263738
H	-2.834023	-1.258721	-0.983102
H	-3.225766	0.498286	-0.669436
H	-2.337143	0.316023	1.672737
H	-1.929244	-1.448628	1.407361
H	0.067097	-1.886893	-0.214036
H	0.053765	-0.942483	-1.723387
H	2.893246	-1.168504	-0.978977
H	3.319033	0.532135	-0.427812
H	0.702659	1.591048	1.21126
H	1.088558	2.158788	-0.435915
