19
../xyz/dsC7O2H10nsd_3761.xyz
C          3.28280       -0.17216        0.56946
C          1.82596       -0.42864        0.28734
O          1.44302       -0.60087       -1.07394
C          0.97486        0.57106       -0.39612
C         -0.49243        0.68705       -0.08176
O         -0.95086        1.77432        0.21136
C         -1.30985       -0.55298       -0.12728
C         -2.77865       -0.39199       -0.49391
C         -2.41364       -0.69202        0.91654
H          3.40971        0.24065        1.57549
H          3.85219       -1.10567        0.51294
H          3.70049        0.53090       -0.15546
H          1.32644       -1.11737        0.97111
H          1.43159        1.51033       -0.70363
H         -0.80204       -1.44772       -0.46231
H         -3.09210        0.61990       -0.72368
H         -3.21885       -1.17301       -1.10271
H         -2.48385        0.11805        1.63342
H         -2.59514       -1.68564        1.30987
