19
../xyz/dsC7O2H10nsd_2690.xyz
C         -2.52035       -0.32629       -0.32185
C         -1.09177       -0.12567        0.15439
C         -1.01750        0.31826        1.60913
O         -0.30245       -1.34412       -0.06278
C          0.71908       -0.64268       -0.79824
C          1.97473       -0.49730       -0.07330
C          2.99596       -0.30421        0.53425
C         -0.15268        0.65497       -0.82039
O          0.41544        1.86692       -0.43829
H         -3.02254       -1.08976        0.28097
H         -3.08758        0.60659       -0.23477
H         -2.53980       -0.65015       -1.36651
H         -1.52540       -0.41222        2.24636
H          0.01798        0.39731        1.94942
H         -1.49998        1.29151        1.74041
H          0.89958       -1.10823       -1.77406
H          3.91046       -0.17683        1.06024
H         -0.62108        0.81352       -1.79491
H          1.11963        1.68340        0.19745
