19

C	1.702642	-1.298157	-0.954279
C	2.191219	-0.095044	-0.141719
C	1.084762	0.779085	0.504524
C	0.181869	0.047467	1.501674
O	-0.854731	-0.734638	0.887773
C	-1.597628	-0.165127	-0.099803
O	-2.624979	-0.687188	-0.447829
C	-1.036379	1.043006	-0.747252
C	0.211244	1.457555	-0.513966
H	1.138733	-2.002514	-0.337266
H	1.053304	-0.987307	-1.777991
H	2.554202	-1.833381	-1.385046
H	2.852595	-0.437857	0.663869
H	2.804295	0.552926	-0.7809
H	1.604237	1.559328	1.07792
H	0.747843	-0.65889	2.114374
H	-0.290855	0.777987	2.170515
H	-1.685384	1.505124	-1.481701
H	0.632334	2.286484	-1.078394
