19

O	2.764613	-0.060268	0.069391
C	1.443648	-0.149122	-0.379615
C	0.684534	-1.504361	-0.338555
C	-0.571766	-0.737303	0.092365
C	-1.874533	-0.726495	-0.6591
C	-1.807348	-1.270785	0.749709
C	0.280105	0.477356	0.480862
C	-0.096624	1.895451	0.170352
O	-1.160688	2.276013	-0.252977
H	2.824552	-0.504729	0.922173
H	1.439903	0.274302	-1.387853
H	0.645662	-2.082888	-1.264891
H	1.077319	-2.144125	0.462264
H	-2.360063	0.227655	-0.812645
H	-1.983428	-1.437471	-1.47242
H	-2.258706	-0.680924	1.54123
H	-1.881888	-2.34407	0.894192
H	0.584535	0.43885	1.538074
H	0.732615	2.618991	0.352468
