19

C	-2.608346	-1.283428	0.67438
C	-1.660414	-0.50359	-0.258646
C	-0.182804	-0.813641	0.072227
C	0.792813	-0.125939	-0.876776
O	2.142578	-0.602771	-0.670206
C	2.855768	0.009905	0.284118
O	2.484083	0.906833	0.990138
C	-1.938314	0.931942	-0.202465
C	-2.169314	2.110136	-0.138367
H	-2.428987	-2.359299	0.584464
H	-2.447819	-0.992045	1.716456
H	-3.652728	-1.0829	0.42301
H	-1.849457	-0.841243	-1.288242
H	0.035575	-0.502065	1.098395
H	-0.033996	-1.897716	0.012992
H	0.571951	-0.372264	-1.918684
H	0.768456	0.957033	-0.744753
H	3.857832	-0.445929	0.317067
H	-2.370456	3.151622	-0.086982
