19
../xyz/dsC7O2H10nsd_4441.xyz
C         -1.67204        1.83725       -0.13318
C         -1.88378        0.44400        0.42262
O         -2.45797       -0.46931       -0.54839
C         -1.34079       -1.37216       -0.45404
C         -0.64668       -0.47033        0.59293
O          0.55295        0.14869        0.20664
C          1.67643       -0.70939        0.31394
C          2.88517        0.00751       -0.06763
C          3.89704        0.57418       -0.37803
H         -1.23882        2.49252        0.62907
H         -1.00077        1.81800       -0.99359
H         -2.63564        2.25411       -0.44153
H         -2.51206        0.48178        1.32283
H         -1.64246       -2.36985       -0.11160
H         -0.79629       -1.46054       -1.40311
H         -0.54104       -0.92251        1.58911
H          1.77313       -1.08204        1.34804
H          1.55378       -1.59475       -0.33136
H          4.78826        1.08191       -0.65341
