19

C	2.449465	0.49649	0.991219
C	1.652861	0.323548	-0.301804
O	2.037134	-0.941941	-0.842644
C	0.16748	0.372276	-0.090189
C	-0.697487	1.287387	-0.544017
C	-2.12945	0.990215	-0.147948
C	-2.011637	-0.355711	0.558741
O	-1.507681	-1.408747	-0.266222
C	-0.585976	-0.719701	0.611903
H	2.263564	1.481014	1.428662
H	2.176503	-0.270948	1.721557
H	3.517808	0.397937	0.779804
H	1.93214	1.135267	-0.992979
H	1.442863	-1.140047	-1.574423
H	-0.429581	2.137973	-1.162364
H	-2.536868	1.75581	0.52523
H	-2.800268	0.938388	-1.014108
H	-2.735771	-0.658137	1.31024
H	-0.137551	-1.33878	1.381884
