19

C	2.257851	-0.986279	0.531281
O	2.451934	0.025335	-0.46167
C	1.183948	-0.624694	-0.406589
C	-2e-06	0.206387	3e-05
C	-0.240878	1.512658	-0.715309
C	0.240924	1.512696	0.715266
C	-1.183997	-0.624608	0.406698
C	-2.257798	-0.986369	-0.531224
O	-2.451997	0.025424	0.461517
H	2.828535	-1.90109	0.380451
H	2.210809	-0.623359	1.556582
H	1.001609	-1.301495	-1.244289
H	0.468658	1.796979	-1.484041
H	-1.271203	1.796522	-0.894726
H	1.271264	1.796541	0.894646
H	-0.46856	1.797117	1.484009
H	-1.001763	-1.301246	1.244552
H	-2.210645	-0.623634	-1.556587
H	-2.828495	-1.901155	-0.380295
