19

O	-2.486548	-0.524831	-0.334859
C	-1.504009	-0.757102	0.662854
C	-0.113691	-0.451709	0.155197
C	0.763478	-1.434296	-0.667603
C	1.956243	-0.632191	-0.142391
C	1.542579	0.845282	-0.095683
C	1.173152	-0.103488	1.030866
C	0.10421	0.905922	-0.5868
O	-0.671275	1.972518	-0.064578
H	-2.483532	0.427806	-0.489268
H	-1.705655	-0.155237	1.5635
H	-1.594146	-1.809286	0.954408
H	0.748364	-2.444163	-0.246546
H	0.586014	-1.483844	-1.747842
H	3.004688	-0.902195	-0.160567
H	2.281661	1.637292	-0.096612
H	1.38523	-0.10014	2.090341
H	-0.085256	0.911019	-1.664943
H	-0.406555	2.102734	0.854378
