19
../xyz/dsC7O2H10nsd_5225.xyz
O         -2.76195       -0.06863       -0.51258
C         -1.92976        0.09847        0.62270
C         -0.48079        0.12979        0.21145
C          0.13625        1.33921       -0.53310
C          1.51504        1.00237        0.09872
C          2.18147       -0.24016       -0.55311
C          1.16632       -1.14606        0.17859
O         -0.12933       -1.11363       -0.46635
C          0.78550        0.03571        1.11340
H         -2.43123       -0.84957       -0.97286
H         -2.21700        1.04442        1.09419
H         -2.08155       -0.70847        1.35757
H          0.05079        1.34600       -1.62235
H         -0.26008        2.27775       -0.13140
H          2.15713        1.83146        0.39350
H          2.21104       -0.30601       -1.64427
H          3.18798       -0.39599       -0.15019
H          1.44934       -2.15766        0.47577
H          0.81968        0.06017        2.19950
