19
../xyz/dsC7O2H10nsd_0684.xyz
O         -2.74938       -1.14186       -0.21158
C         -1.81528       -0.41094       -0.05456
C         -1.67016        1.04690       -0.48163
C         -0.45823        1.53944        0.31244
C          0.32807        0.23591        0.58384
O         -0.67179       -0.81171        0.56340
C          1.40903       -0.05800       -0.42456
C          2.82160        0.39778       -0.14614
C          2.47788       -1.06898       -0.10682
H         -1.50118        1.06605       -1.56393
H         -2.59733        1.58798       -0.28914
H          0.15201        2.27356       -0.21664
H         -0.77894        1.98597        1.25774
H          0.75960        0.22326        1.58957
H          1.08041       -0.00937       -1.45996
H          3.41052        0.77206       -0.97560
H          3.01771        0.89896        0.79645
H          2.83222       -1.70530       -0.90940
H          2.43682       -1.55729        0.86098
