19

O	-0.854803	1.863106	-0.444479
C	-0.995184	0.56935	0.014039
C	-2.259238	0.01364	0.663743
O	-2.070716	-1.263811	-0.009285
C	-0.941252	-0.749734	-0.719495
C	0.166682	-0.384423	0.241602
C	1.486846	0.023712	-0.334675
C	2.600459	0.495964	0.575242
C	2.705973	-0.837517	-0.123268
H	-0.214609	2.315057	0.116299
H	-2.285079	-0.087748	1.755452
H	-3.169696	0.509324	0.307428
H	-0.804104	-1.032158	-1.756869
H	0.217264	-0.939216	1.179055
H	1.418545	0.527345	-1.294441
H	3.236455	1.307258	0.238231
H	2.415075	0.490255	1.644569
H	3.412218	-0.936632	-0.939961
H	2.592369	-1.733806	0.477229
