19

O	1.838677	-1.857595	-0.34739
C	1.903856	-0.727634	0.063447
C	0.801622	0.282446	-0.064825
C	1.242368	1.667379	-0.351985
O	0.870155	1.290427	0.963223
C	-0.559446	-0.22731	-0.451891
C	-1.749868	0.765626	-0.543824
C	-2.649864	-0.317255	0.111387
C	-1.366578	-1.033513	0.609549
H	2.803899	-0.332893	0.586151
H	2.298996	1.891044	-0.496155
H	0.547406	2.32341	-0.873072
H	-0.454757	-0.813541	-1.369322
H	-1.598011	1.614189	0.129365
H	-2.028052	1.136274	-1.533286
H	-3.368342	0.014816	0.863638
H	-3.180327	-0.911093	-0.638308
H	-1.099996	-0.721138	1.623463
H	-1.324009	-2.122157	0.549717
