19
../xyz/dsC7O2H10nsd_5987.xyz
O          3.50500        0.14208       -0.18591
C          2.12705        0.11349       -0.52046
C          1.22842       -0.04883        0.71342
C         -0.22085       -0.08849        0.36140
O         -0.71509       -1.18668       -0.41948
C         -2.05148       -0.72445       -0.07627
C         -2.20159        0.59011       -0.88468
C         -1.12160        1.12942        0.05257
C         -1.48150        0.10721        1.13298
H          3.74769       -0.73201        0.13549
H          1.91633        1.07128       -1.00709
H          1.90019       -0.67812       -1.24873
H          1.49559       -0.97533        1.23986
H          1.41258        0.77984        1.40631
H         -2.79770       -1.51594       -0.06871
H         -1.99798        0.52544       -1.95823
H         -3.16643        1.07050       -0.70203
H         -0.78379        2.14933        0.18745
H         -1.71647        0.19100        2.18506
