19
../xyz/dsC7O2H10nsd_0180.xyz
C          2.02247        1.01318       -0.06550
C          1.32200       -0.09337       -0.88665
O          1.84240       -1.09217        0.08165
C          1.31452        0.03123        0.89786
C          0.04923        0.03633       -0.00311
C         -0.90447        1.24458       -0.10274
C         -2.27280        0.61595        0.20513
O         -2.18400       -0.71274       -0.27912
C         -0.89314       -1.18367        0.08267
H          3.11095        0.95069       -0.05530
H          1.65336        2.03788       -0.14113
H          1.40161       -0.33274       -1.94846
H          1.39102       -0.06015        1.98291
H         -0.65167        2.05471        0.58594
H         -0.89811        1.65332       -1.11828
H         -2.46583        0.62393        1.29162
H         -3.11111        1.10634       -0.29579
H         -0.90260       -1.58678        1.10854
H         -0.62166       -1.99332       -0.59623
