19

O	-2.254903	-1.008954	-0.297325
C	-1.628009	-0.074241	0.53444
C	-1.521458	1.348658	0.02201
C	-0.312415	0.471364	0.111269
C	1.050956	0.630574	0.822629
C	1.607993	1.023283	-0.584989
C	0.574814	-0.042794	-1.023821
O	1.096867	-1.271036	-0.468786
C	1.467572	-0.848911	0.870387
H	-1.650819	-1.755516	-0.385122
H	-1.823699	-0.201264	1.600622
H	-1.935636	1.54175	-0.962625
H	-1.647415	2.155998	0.736963
H	1.199393	1.236343	1.715335
H	1.328909	2.035807	-0.877997
H	2.65922	0.817568	-0.80175
H	0.243393	-0.208014	-2.046769
H	0.911973	-1.431707	1.613794
H	2.54225	-0.998647	1.024889
