19
../xyz/dsC7O2H10nsd_1453.xyz
O          2.73768        0.49243       -0.55294
C          2.11285        0.01395        0.36117
C          0.89687       -0.85386        0.18721
C         -0.48297       -0.74697        0.91324
O         -1.00542       -1.66150       -0.12473
C         -0.21968       -0.64026       -0.86360
C         -0.91270        0.46563        0.01804
C         -0.28475        1.84086        0.22528
C         -2.41655        0.61673       -0.21149
H          2.46056        0.12630        1.41518
H          1.23773       -1.89667        0.19989
H         -0.73350       -0.97422        1.95110
H         -0.16718       -0.73342       -1.94842
H         -0.36676        2.43629       -0.69036
H         -0.82988        2.37613        1.01043
H          0.76696        1.83223        0.50857
H         -2.88910        1.09036        0.65639
H         -2.60318        1.26638       -1.07394
H         -2.89208       -0.34724       -0.38660
