19

O	3.160298	-0.561923	-0.159214
C	1.971037	0.029844	0.341323
C	0.831511	-0.406393	-0.571804
C	-0.554268	0.084769	-0.121921
C	-1.714867	-0.602064	-0.906475
O	-2.027966	-1.453448	0.208897
C	-1.148295	-0.720961	1.077801
C	-0.631477	1.532074	-0.021863
C	-0.709342	2.729909	0.056574
H	3.897312	-0.252656	0.375171
H	1.770533	-0.294707	1.37598
H	2.03813	1.127201	0.350697
H	1.034547	-0.043914	-1.585628
H	0.814171	-1.501222	-0.616676
H	-2.541466	0.072071	-1.160102
H	-1.414552	-1.170808	-1.793874
H	-1.695889	-0.105614	1.801446
H	-0.448575	-1.377818	1.60712
H	-0.778664	3.787362	0.126598
