19
../xyz/dsC7O2H10nsd_2490.xyz
C          0.98761        1.76104        0.84336
C          0.29679        0.58569        0.16813
C         -0.70234        0.99161       -0.94213
O         -1.70367       -0.01289       -0.97634
C         -1.92671       -0.40410        0.37431
C         -0.53488       -0.46780        1.00048
C          0.37217       -1.62257        0.47399
C          1.21991       -0.57337       -0.25537
O          2.24853       -0.60790       -0.86745
H          1.63294        1.43025        1.66280
H          1.61779        2.29712        0.12612
H          0.25557        2.46741        1.24944
H         -1.13940        1.97260       -0.68974
H         -0.25050        1.05630       -1.93552
H         -2.55399        0.33710        0.89691
H         -2.45681       -1.36048        0.36037
H         -0.53150       -0.33846        2.08311
H          0.91819       -2.19793        1.22679
H         -0.12648       -2.32069       -0.20652
