19

O	-0.094238	-1.303245	1.17651
C	0.13923	-0.525515	0.015657
C	-1.175465	-0.559315	-0.777369
C	-2.307674	0.008588	0.056801
O	-2.653335	1.163384	0.011753
C	1.392061	-0.872029	-0.871344
C	1.865494	0.577638	-0.716753
C	2.095075	0.871935	0.734638
C	0.683828	0.896447	0.205555
H	0.607661	-1.115338	1.808071
H	-1.071763	0.04021	-1.68507
H	-1.394131	-1.599798	-1.042999
H	-2.795995	-0.70877	0.748841
H	2.05646	-1.636266	-0.454499
H	1.121929	-1.158448	-1.890141
H	2.281772	1.191519	-1.504719
H	2.446498	0.084488	1.400897
H	2.504335	1.848912	0.969521
H	0.068529	1.785887	0.260886
