19

C	-1.406675	1.544733	-0.874194
C	-0.463305	0.44286	-0.496991
C	1.029444	0.423696	-0.936944
C	1.52101	-1.023999	-0.893801
C	0.632905	-1.175814	0.369023
C	-0.812143	-1.012688	-0.181433
O	-1.84717	-1.16169	0.769074
C	0.670856	0.422339	0.517656
O	1.108706	1.296138	1.480074
H	-1.740348	1.45269	-1.914138
H	-2.29957	1.525295	-0.239267
H	-0.933875	2.526017	-0.761122
H	1.42478	1.256842	-1.50536
H	1.297146	-1.685533	-1.738673
H	2.58825	-1.074881	-0.661984
H	0.836298	-1.919613	1.137229
H	-1.085498	-1.66943	-1.014779
H	-1.675654	-0.544694	1.489975
H	0.463621	1.330974	2.195036
