19
../xyz/dsC7O2H10nsd_1038.xyz
C         -3.70192        0.19214        0.08657
C         -2.35428       -0.33517       -0.07157
C         -1.24205       -0.77860       -0.19687
C          0.11820       -1.27716       -0.35494
C          1.20514       -0.24887        0.08040
C          2.60645       -0.80684       -0.22092
O          1.09099        0.02811        1.45160
C          1.00281        1.03673       -0.71093
O          0.79366        2.09518       -0.17275
H         -4.28032        0.09503       -0.83883
H         -4.24615       -0.33819        0.87574
H         -3.68143        1.25413        0.35461
H          0.27305       -2.17361        0.25723
H          0.29629       -1.57352       -1.39706
H          2.74394       -1.00867       -1.28814
H          3.37098       -0.09846        0.10817
H          2.74832       -1.74111        0.32963
H          0.82656        0.95956        1.51266
H          1.06550        0.94514       -1.81522
