19

C	2.403729	0.087034	-0.090426
C	1.55395	-1.218027	0.016543
C	0.160621	-0.667652	-0.256484
O	-0.936629	-1.376466	0.264623
C	-2.155568	-0.719529	-0.083539
C	-2.090478	0.792229	-0.127524
C	-0.969493	1.491643	0.056896
C	0.26556	0.713543	0.38161
O	1.492581	1.206165	-0.124796
H	3.085096	0.187613	0.764211
H	2.999921	0.123962	-1.006851
H	1.87392	-1.984816	-0.69163
H	1.595524	-1.642007	1.024239
H	0.034985	-0.517284	-1.341365
H	-2.507334	-1.083314	-1.06594
H	-2.898334	-1.044802	0.654771
H	-3.035247	1.286461	-0.340076
H	-0.943893	2.576046	0.023229
H	0.337815	0.585107	1.478347
