19
../xyz/dsC7O2H10nsd_0537.xyz
C          2.28169       -0.00434       -0.08626
C          1.46072       -1.14763        0.59570
C          0.18724       -0.51391        0.04968
O         -0.87579       -1.32404       -0.35543
C         -1.98860       -0.45859       -0.45071
O         -1.85296        0.51953        0.56132
C         -0.46221        0.70266        0.77283
C          0.27021        1.68559       -0.19161
C          1.01200        0.49329       -0.84698
H          2.69300        0.73159        0.60994
H          3.09069       -0.35377       -0.72988
H          1.64618       -2.11676        0.12535
H          1.53595       -1.26321        1.68071
H         -2.01646        0.01437       -1.44810
H         -2.90547       -1.02879       -0.27920
H         -0.29613        0.83926        1.84443
H         -0.43468        2.18787       -0.85942
H          0.89746        2.44253        0.28816
H          1.05309        0.44059       -1.93510
