19
../xyz/dsC7O2H10nsd_5016.xyz
C          2.43128       -1.12426       -0.41252
C          1.56176       -0.60691        0.73810
C          0.44145        0.27589        0.27880
C         -0.56526        1.11910        1.11022
C         -0.68954        1.51392       -0.37281
O          0.77619        1.52726       -0.47997
C         -0.65956        0.00165       -0.79216
C         -1.82050       -0.91475       -0.53794
O         -2.01434       -1.53110        0.48261
H          1.85301       -1.75711       -1.09353
H          2.83961       -0.29185       -0.99206
H          3.26494       -1.72016       -0.03101
H          1.11600       -1.43983        1.29473
H          2.17155       -0.03701        1.44949
H         -1.38999        0.59631        1.59353
H         -0.10202        1.88146        1.73759
H         -1.23820        2.32891       -0.84438
H         -0.27936       -0.11557       -1.81109
H         -2.52810       -1.00223       -1.39450
