19
../xyz/dsC7O2H10nsd_0846.xyz
O          3.02726        0.62287        0.27011
C          2.34749       -0.24379       -0.21553
C          0.87430       -0.08901       -0.54033
O          0.18578       -1.34908       -0.42302
C         -0.62555       -0.84884        0.67922
C         -2.10007       -0.73081        0.30922
C         -2.16299        0.51552       -0.59603
C         -1.13416        1.47929        0.03341
C         -0.00368        0.57240        0.54032
H          2.75124       -1.25164       -0.46350
H          0.78921        0.33652       -1.55332
H         -0.43365       -1.42068        1.59253
H         -2.47290       -1.64158       -0.16738
H         -2.68189       -0.56941        1.22574
H         -1.86016        0.24679       -1.61380
H         -3.16430        0.94856       -0.66001
H         -0.77888        2.24567       -0.66236
H         -1.58341        2.00141        0.88631
H          0.55834        0.98550        1.37739
