19

C	-2.18992	-0.292579	0.249979
C	-1.292703	0.541763	-0.631447
O	-0.4595	1.525248	-0.064178
C	0.804119	1.054402	0.401187
C	1.64661	0.378702	-0.703391
O	1.404554	-1.032032	-0.595309
C	0.318234	-1.197441	0.32897
C	0.610368	-0.116458	1.375914
C	-0.978394	-0.915368	-0.414318
H	-2.16367	-0.101997	1.316208
H	-3.168648	-0.564608	-0.131227
H	-1.681143	0.860525	-1.594387
H	1.295268	1.929994	0.828368
H	1.360322	0.751898	-1.693588
H	2.71813	0.559128	-0.557358
H	0.366122	-2.222454	0.703611
H	-0.177418	0.070936	2.10558
H	1.538231	-0.356742	1.902605
H	-1.157514	-1.59054	-1.245277
