19

C	2.390343	0.047576	-0.539969
C	1.055041	-0.27289	0.083208
C	0.634742	0.30856	1.401424
C	-0.124352	0.681819	0.133063
C	-0.181781	2.097019	-0.381066
C	-1.342021	-0.172146	-0.062379
O	-2.479911	0.181825	-0.181973
O	-0.98238	-1.491452	-0.091894
C	0.441214	-1.63759	-0.203048
H	3.171368	-0.619066	-0.15656
H	2.359848	-0.065251	-1.629364
H	2.697432	1.072928	-0.316185
H	0.152207	-0.324113	2.140494
H	1.258401	1.093421	1.817474
H	-1.030225	2.621063	0.068297
H	0.730774	2.647315	-0.136776
H	-0.316274	2.122351	-1.467154
H	0.757898	-2.411752	0.50353
H	0.677776	-1.973964	-1.220212
