19

C	-0.234862	2.162255	-0.381818
C	-0.432435	0.721894	-0.004762
O	-1.405579	0.449385	1.02783
C	-1.629425	-0.081727	-0.281483
C	-1.183323	-1.520601	-0.414448
O	0.137656	-1.555644	0.120858
C	0.702746	-0.263623	0.052759
C	1.983637	-0.067995	0.793256
C	1.982921	-0.084974	-0.726018
H	-1.190332	2.689516	-0.338603
H	0.454274	2.65776	0.311038
H	0.172864	2.256749	-1.392424
H	-2.497773	0.289302	-0.820434
H	-1.794115	-2.224283	0.160037
H	-1.202355	-1.819095	-1.475149
H	2.148425	0.875579	1.302185
H	2.380107	-0.936823	1.305857
H	2.166693	0.843624	-1.255572
H	2.370034	-0.973626	-1.211361
