19

C	2.563598	-0.656176	-0.320924
C	1.176373	-0.141065	-0.012264
C	1.043968	1.364371	0.118009
C	-0.372012	1.86658	0.111286
C	-1.431715	1.123263	-0.1962
C	-1.37801	-0.335882	-0.558861
O	-2.344161	-1.082748	0.18112
C	-0.005405	-0.945941	-0.365994
O	0.470548	-0.8963	0.989272
H	3.277976	-0.314171	0.436253
H	2.573925	-1.748661	-0.33012
H	2.907861	-0.293264	-1.295173
H	1.548166	1.680668	1.042104
H	1.608873	1.840334	-0.696721
H	-0.508019	2.913891	0.370591
H	-2.431006	1.54992	-0.178592
H	-1.672875	-0.466288	-1.608883
H	-2.038705	-1.069008	1.097052
H	0.141912	-1.911946	-0.849954
