19

C	-2.723307	-0.715128	-0.562554
C	-1.881546	0.427026	-0.039166
C	-1.216667	0.346469	1.330792
C	-0.395053	0.312725	0.088445
O	0.48635	1.390051	-0.286861
C	1.437302	0.45826	-0.833796
C	2.435397	-0.088442	0.200739
O	1.539173	-1.177951	0.546705
C	0.567449	-0.747088	-0.424662
H	-2.799142	-0.691385	-1.655277
H	-2.299028	-1.683829	-0.277779
H	-3.739277	-0.671844	-0.155354
H	-2.219276	1.421547	-0.320966
H	-1.170507	1.252766	1.924853
H	-1.309263	-0.571335	1.903611
H	1.778487	0.731768	-1.832693
H	3.376739	-0.469754	-0.214229
H	2.637251	0.582077	1.042514
H	0.198389	-1.55974	-1.052225
