19

O	0.20273	2.193582	0.091976
C	-0.068282	0.946215	-0.533005
C	-1.503278	0.505375	-0.287309
C	-1.870594	-0.925727	-0.647327
C	-1.406903	-0.590433	0.741935
O	-0.057276	-0.823957	1.069662
C	0.732421	-0.215229	0.061361
C	1.635949	-1.090422	-0.767535
C	2.202776	-0.163191	0.292989
H	0.084446	2.070442	1.040836
H	0.170516	1.097386	-1.589188
H	-2.264623	1.275486	-0.271411
H	-2.92655	-1.135352	-0.779586
H	-1.212977	-1.493102	-1.29636
H	-2.057934	-0.693246	1.601232
H	1.625575	-2.150955	-0.541846
H	1.788702	-0.842746	-1.813282
H	2.569438	-0.618362	1.206108
H	2.727249	0.733919	-0.016262
