19

C	2.2089	-0.641591	-0.821221
C	1.008157	-0.208852	-0.004294
C	1.205115	0.744731	1.155904
C	0.529328	1.220656	-0.102012
O	-0.841834	1.485964	-0.021292
C	-1.678889	0.59029	-0.728531
C	-1.445362	-0.853595	-0.32997
O	-1.122295	-1.074749	1.044796
C	-0.087149	-1.241921	0.071207
H	2.727625	-1.481714	-0.34453
H	1.916951	-0.95726	-1.829865
H	2.928105	0.175958	-0.924484
H	0.55567	0.615188	2.013304
H	2.212379	1.086691	1.368534
H	1.064938	1.898293	-0.766225
H	-2.702636	0.895709	-0.489593
H	-1.547375	0.678384	-1.820937
H	-2.119019	-1.584598	-0.777748
H	0.23579	-2.274688	-0.062984
