19

C	1.851795	-0.817513	0.147776
O	1.988763	0.618944	-0.093337
C	0.650052	0.642666	-0.678475
C	-0.467286	1.624732	-0.266373
C	-1.41112	0.626322	0.473686
C	-1.812221	-0.550543	-0.474956
O	-0.650064	-1.432191	-0.536901
C	0.335791	-0.637165	0.088149
C	-0.381396	-0.114331	1.343373
H	2.26589	-1.402969	-0.682851
H	2.307397	-1.12286	1.093794
H	0.723381	0.507858	-1.764312
H	-0.114742	2.403963	0.415783
H	-0.930919	2.10853	-1.130705
H	-2.269386	1.0839	0.967654
H	-2.653806	-1.125073	-0.075285
H	-2.068457	-0.208621	-1.485468
H	-0.788319	-0.932333	1.942391
H	0.225679	0.548572	1.961826
