19

C	4.216854	-1.007287	0.147728
C	2.906841	-0.407561	-0.059401
C	1.828452	0.094728	-0.249595
C	0.507699	0.70178	-0.419018
O	0.399583	1.942816	0.27961
C	-0.612161	-0.276347	-0.002861
C	-2.008863	0.327077	-0.214811
C	-3.089388	-0.514118	0.419223
O	-4.052784	-0.956047	-0.1517
H	4.180176	-1.800391	0.902311
H	4.598576	-1.447415	-0.779882
H	4.944444	-0.260285	0.483164
H	0.360592	0.965544	-1.47433
H	0.8066	1.820075	1.144429
H	-0.501757	-1.204449	-0.574117
H	-0.466579	-0.535729	1.053951
H	-2.023595	1.315838	0.263405
H	-2.239008	0.454996	-1.276692
H	-2.930439	-0.711964	1.506892
