19
../xyz/dsC7O2H10nsd_0032.xyz
C         -2.44823       -1.23391        0.58121
C         -1.31823       -1.06868       -0.45078
C         -0.46318        0.12739       -0.20297
C          0.83436        0.29611        0.19773
C          1.84489       -0.77364        0.50545
O          1.86027       -1.83975       -0.44041
C          1.04709        1.71685        0.26711
C         -0.12467        2.29806       -0.08867
O         -1.05170        1.34744       -0.38209
H         -3.10093       -0.35635        0.58861
H         -3.05858       -2.11130        0.34678
H         -2.04284       -1.36032        1.58977
H         -0.66364       -1.94374       -0.45058
H         -1.75711       -0.99677       -1.45459
H          2.83986       -0.31121        0.59575
H          1.63437       -1.25522        1.46729
H          1.94000       -1.44128       -1.31379
H          1.95958        2.22186        0.54602
H         -0.45147        3.31971       -0.18985
