19
../xyz/dsC7O2H10nsd_3280.xyz
O          2.81332       -0.66249        0.36393
C          1.52179       -0.12913        0.44103
C          0.98252        0.73107       -0.66695
C         -0.12711        1.75853       -0.38621
C         -1.37619        0.96624        0.00344
C         -1.38873        0.14371        1.28283
C         -1.04645       -0.51789       -0.01421
O         -1.93906       -1.49287       -0.46024
C          0.41173       -0.66663       -0.42662
H          2.99717       -0.89471       -0.55191
H          1.31656        0.13213        1.47317
H          1.65440        0.92564       -1.49895
H          0.16992        2.48504        0.37952
H         -0.33025        2.32914       -1.29881
H         -2.33939        1.31313       -0.35490
H         -0.63490        0.29693        2.04666
H         -2.37195       -0.09444        1.67402
H         -1.95989       -1.45757       -1.42337
H          0.63887       -1.50795       -1.07467
