19

C	-2.846103	0.326812	-0.384003
C	-1.590386	-0.485985	-0.200051
O	-0.986955	-0.479081	1.099173
C	-0.251834	0.0849	-0.000689
C	0.125492	1.520875	0.080398
C	1.452288	1.663503	0.045623
C	2.170183	0.339092	-0.070468
C	1.028124	-0.631305	-0.466929
O	1.092788	-1.92803	0.080682
H	-3.059298	0.470152	-1.449003
H	-3.701952	-0.191213	0.061523
H	-2.760978	1.306848	0.091326
H	-1.615711	-1.481687	-0.649985
H	-0.596059	2.318258	0.203255
H	1.978256	2.609377	0.113242
H	2.985611	0.354444	-0.802377
H	2.601951	0.036195	0.892499
H	0.98522	-0.674383	-1.567443
H	1.809699	-2.398451	-0.355169
