19

C	2.166121	0.816939	-0.169252
O	2.197412	-0.614416	0.072459
C	0.808346	-0.614554	0.500655
C	-0.091974	-1.638583	-0.213475
O	-1.361366	-1.117632	-0.572913
C	-1.983837	-0.269978	0.381324
C	-1.793561	1.211658	0.023695
C	-0.355623	1.625914	-0.15002
C	0.674852	0.826786	0.071152
H	2.775639	1.363543	0.564403
H	2.507841	1.076415	-1.178976
H	0.76718	-0.754195	1.59086
H	0.397359	-1.930115	-1.147461
H	-0.210086	-2.53932	0.408545
H	-3.054138	-0.506542	0.372243
H	-1.620046	-0.475764	1.397437
H	-2.324099	1.408992	-0.918122
H	-2.293206	1.833631	0.781222
H	-0.180758	2.630638	-0.530987
