19

C	-2.26256	1.380329	-0.473733
C	-1.287781	0.369999	0.080663
C	-1.791095	-0.891624	0.771572
C	-1.043474	-0.978129	-0.535816
O	0.320441	-1.313703	-0.502738
C	0.986308	-0.400346	0.373113
C	0.088541	0.850284	0.524343
C	2.362611	-0.134381	-0.211211
O	2.990493	0.875064	-0.025974
H	-1.813682	1.955752	-1.291519
H	-3.162584	0.892057	-0.860606
H	-2.581119	2.090695	0.297898
H	-1.304411	-1.238233	1.677613
H	-2.860367	-1.074582	0.74287
H	-1.526085	-1.329334	-1.440705
H	1.144191	-0.880603	1.353503
H	0.111664	1.235886	1.547042
H	0.44126	1.650299	-0.134647
H	2.748364	-0.969617	-0.835329
