19

C	1.494415	-0.867391	-0.668155
O	1.604977	0.559377	-0.637251
C	0.774383	1.081486	0.413815
C	0.579526	-0.103169	1.366721
C	0.368155	-1.20977	0.319669
C	-0.971847	-1.003928	-0.375623
O	-2.030217	-0.427581	0.389964
C	-1.419935	0.375884	-0.63458
C	-0.56681	1.5484	-0.176117
H	1.277685	-1.188818	-1.694503
H	2.447041	-1.32265	-0.362496
H	1.308234	1.924567	0.861988
H	1.486114	-0.28985	1.949251
H	-0.270131	0.013143	2.038673
H	0.452994	-2.221859	0.723607
H	-1.285942	-1.798832	-1.052918
H	-2.077703	0.560157	-1.48343
H	-0.359282	2.196771	-1.03381
H	-1.124411	2.14393	0.557542
