19
../xyz/dsC7O2H10nsd_6042.xyz
C          3.34795        0.65777       -0.13931
C          2.31141       -0.43171        0.06966
O          1.04929        0.06898       -0.35301
C          0.02117       -0.84360       -0.20931
C         -0.65903       -1.01529        1.12958
C         -1.36953       -0.30739       -0.02848
O         -2.34414       -1.03574       -0.72767
C         -1.59611        1.11072        0.06287
C         -1.85424        2.28230        0.14324
H          4.33592        0.30657        0.17304
H          3.39695        0.94372       -1.19363
H          3.09293        1.54640        0.44478
H          2.56942       -1.33230       -0.51065
H          2.26164       -0.73032        1.12812
H          0.08380       -1.72850       -0.84446
H         -1.03176       -1.99840        1.39431
H         -0.31822       -0.39112        1.94745
H         -3.18051       -0.92116       -0.26185
H         -2.06102        3.32228        0.19883
