19
../xyz/dsC7O2H10nsd_5083.xyz
C         -2.95880        0.22427       -0.30516
O         -1.69765       -0.11180       -0.85459
C         -0.64697       -0.02935        0.05068
C         -0.48080       -1.08592        1.12861
C          0.51121       -0.99492       -0.01143
C          1.79946       -0.19496        0.20052
O          2.67618       -0.23736       -0.91926
C          1.29523        1.20523        0.49782
C         -0.03077        1.29816        0.36649
H         -2.99615        1.26975        0.03288
H         -3.69754        0.08628       -1.09790
H         -3.21501       -0.42370        0.54451
H         -0.18287       -0.77449        2.12497
H         -1.16235       -1.93039        1.09224
H          0.52550       -1.79491       -0.74159
H          2.38934       -0.60153        1.03039
H          2.23159        0.22258       -1.64064
H          1.96873        2.00743        0.77639
H         -0.62087        2.19724        0.50438
