19

O	2.554364	-0.525068	0.400499
C	1.170378	-0.546908	0.623001
C	0.241656	-0.856164	-0.552252
C	-1.074754	-1.500294	-0.324766
C	-2.158967	-0.779984	-0.031436
C	-2.118416	0.726178	0.078475
C	-0.7662	1.229291	0.62079
C	0.426394	0.569211	-0.059877
O	1.19327	1.45459	-0.82148
H	2.841311	-1.405227	0.136371
H	0.86508	-0.860332	1.62132
H	0.766053	-1.103426	-1.473447
H	-1.134493	-2.583673	-0.403953
H	-3.114366	-1.274699	0.122189
H	-2.30529	1.166693	-0.911319
H	-2.930308	1.081509	0.722027
H	-0.670688	2.309505	0.48092
H	-0.726631	1.039026	1.699669
H	2.107721	1.146465	-0.749535
