19
../xyz/dsC7O2H10nsd_3020.xyz
C          2.09360       -0.99289       -0.95216
C          0.67250       -0.73787       -0.48676
C          0.35217       -0.84883        1.02350
O          1.13597        0.36912        1.28009
C          0.30456        0.67844        0.07165
C          0.43319        2.02373       -0.56672
C         -0.90596        0.06914        0.83334
C         -2.15157       -0.40169        0.14145
O         -2.37175       -0.31057       -1.04269
H          2.81411       -0.54971       -0.26200
H          2.29117       -2.06807       -1.02060
H          2.25617       -0.56947       -1.94925
H         -0.07193       -1.16381       -1.16188
H          0.47703       -1.68293        1.71478
H          0.22553        2.81707        0.15758
H          1.44288        2.16880       -0.96233
H         -0.28262        2.10407       -1.39017
H         -1.14963        0.58975        1.76469
H         -2.90743       -0.85424        0.82424
