19

C	0.138235	1.641094	-0.531789
C	0.051604	0.33705	0.221147
O	1.250723	0.059561	0.9689
C	2.343102	-0.314198	0.282415
O	2.436896	-0.458119	-0.904568
C	-1.120344	-0.15743	1.020828
C	-2.44786	0.15271	0.323177
C	-1.948281	-0.619545	-0.944367
C	-0.629732	-0.923949	-0.225213
H	0.89667	1.57937	-1.315553
H	-0.815964	1.892709	-0.998599
H	0.402184	2.453632	0.153046
H	3.161706	-0.470542	1.003276
H	-0.988147	-0.394325	2.069641
H	-3.291792	-0.349917	0.799634
H	-2.703234	1.210054	0.201471
H	-2.53618	-1.520131	-1.131709
H	-1.873832	-0.057104	-1.879707
H	-0.072705	-1.849671	-0.293338
