19

C	-2.102353	1.200339	-0.618673
C	-1.439595	-0.035212	-0.053781
O	-1.803061	-1.23087	-0.695878
C	-1.101178	-0.115624	1.421592
C	-0.009017	-0.014358	0.385085
C	1.026391	-1.101126	0.045685
C	2.052196	0.030672	-0.144548
O	3.212001	0.059735	-0.433812
C	1.014602	1.12163	0.197835
H	-1.753707	2.107123	-0.116836
H	-1.895363	1.293728	-1.68986
H	-3.190445	1.148996	-0.489571
H	-2.726514	-1.412943	-0.489073
H	-1.301517	0.748907	2.047987
H	-1.234986	-1.076338	1.908992
H	1.283336	-1.797567	0.850627
H	0.815843	-1.679993	-0.858515
H	1.26551	1.696873	1.09541
H	0.820049	1.822372	-0.620811
