19

C	-2.889917	0.381075	-0.17387
C	-1.808411	-0.590531	-0.66828
C	-0.477246	-0.362897	-0.005606
C	-0.073972	-0.950683	1.298408
C	0.745307	-1.33036	0.064789
C	1.652717	-0.193585	-0.268552
O	2.808653	-0.100167	-0.569034
C	0.468934	0.821935	-0.310108
O	0.555988	1.891226	0.596489
H	-3.043581	0.283406	0.905366
H	-2.612095	1.421353	-0.377247
H	-3.845295	0.192319	-0.672208
H	-2.132045	-1.62218	-0.483583
H	-1.696796	-0.492269	-1.756022
H	0.365215	-0.327149	2.070041
H	-0.695399	-1.759388	1.671288
H	0.838994	-2.360469	-0.256596
H	0.348798	1.168297	-1.348384
H	-0.149401	2.517882	0.407026
