19
../xyz/dsC7O2H10nsd_3895.xyz
C         -2.96258       -0.64707        0.11537
C         -1.87499        0.33421       -0.26999
C         -0.94418        0.87348        0.83931
C          0.18263        0.23315        0.00591
C          1.37942        1.11433       -0.50590
C          2.31372        0.17552        0.26661
O          2.13894       -1.12113       -0.30659
C          1.19631       -0.69420        0.68242
O         -0.75380       -0.30977       -0.92983
H         -3.77652       -0.13129        0.63704
H         -3.37751       -1.12610       -0.77687
H         -2.56673       -1.42917        0.77086
H         -2.28745        1.12400       -0.91236
H         -0.90034        1.95747        0.95568
H         -1.10120        0.41153        1.81787
H          1.53303        1.10846       -1.58674
H          1.33977        2.14063       -0.13217
H          3.25213        0.38597        0.76469
H          1.06169       -1.33077        1.55091
