19

C	0.270731	2.02	-0.337522
C	-0.37923	0.713866	0.021077
O	-1.472939	0.789664	0.975548
C	-1.749363	0.299776	-0.339137
C	-1.794224	-1.219787	-0.438749
C	-0.389484	-1.619192	-0.040745
C	0.403153	-0.566683	0.193098
C	1.849101	-0.607562	0.582783
O	2.698018	-0.047231	-0.420846
H	-0.48962	2.79012	-0.488894
H	0.939683	2.353436	0.462651
H	0.874781	1.920052	-1.242923
H	-2.417431	0.916728	-0.935521
H	-2.552589	-1.648835	0.227528
H	-2.042218	-1.547333	-1.456886
H	-0.09121	-2.655617	0.083026
H	2.029677	-0.002252	1.478189
H	2.14109	-1.641293	0.819984
H	2.5431	-0.546991	-1.229598
