19

C	-3.601394	0.681875	0.459933
O	-2.16838	0.691431	0.426744
C	-1.610339	-0.350148	-0.22376
O	-2.240474	-1.236981	-0.747355
C	-0.171678	-0.25915	-0.207555
C	1.033745	-0.24747	-0.234348
C	2.493916	-0.214581	-0.247132
C	3.010004	1.177039	-0.665686
C	3.057769	-0.638822	1.125074
H	-3.888109	1.576064	1.01317
H	-4.011555	0.708968	-0.552848
H	-3.970256	-0.215663	0.962986
H	2.836764	-0.944107	-0.993492
H	2.698761	1.936959	0.057162
H	4.103325	1.170908	-0.711488
H	2.624138	1.462543	-1.647532
H	2.707377	-1.635296	1.405255
H	4.151309	-0.652644	1.089005
H	2.746928	0.064208	1.903509
