19

C	2.763521	-0.832318	0.828814
O	2.314184	0.269851	0.063278
C	0.959605	0.585543	0.224284
C	0.726773	1.959114	-0.411703
C	0.030455	-0.462904	-0.420186
O	0.443357	-1.357149	-1.12565
C	-1.378367	-0.302731	-0.115469
C	-2.54912	-0.16981	0.148641
C	-3.962471	-0.026646	0.451937
H	2.297877	-1.770708	0.50853
H	3.843232	-0.90046	0.67759
H	2.566257	-0.678898	1.901586
H	0.691852	0.631753	1.296011
H	0.993857	1.925607	-1.471645
H	-0.318418	2.261982	-0.317324
H	1.359745	2.699815	0.082357
H	-4.512945	0.314523	-0.431705
H	-4.393939	-0.984864	0.760516
H	-4.13022	0.698139	1.255144
