19
../xyz/dsC7O2H10nsd_4240.xyz
C          2.39514       -0.15227       -0.61651
C          1.36108        0.20571        0.43985
O          0.61744        1.35942        0.01677
C         -0.76856        1.19875        0.26758
C         -1.58030        0.60790       -0.93096
C         -1.52466       -0.77625       -0.25591
O         -0.26129       -1.44703       -0.48124
C          0.32140       -0.87764        0.72034
C         -0.98068       -0.13329        1.04794
H          3.01092        0.71997       -0.84996
H          3.05188       -0.95108       -0.25633
H          1.89548       -0.49172       -1.52622
H          1.86435        0.44359        1.39214
H         -1.16092        2.12268        0.69891
H         -2.60220        1.00101       -0.95290
H         -1.12537        0.69507       -1.91953
H         -2.37076       -1.46115       -0.33702
H          0.68141       -1.65846        1.39779
H         -1.43458       -0.15664        2.03490
