19

C	2.332393	-1.077738	-0.323747
C	1.207527	-0.256374	0.337832
C	1.419956	1.17613	0.146434
C	1.624177	2.348215	-0.022236
C	-0.181724	-0.697157	-0.172396
O	-0.299631	-2.07341	0.172387
C	-1.323598	0.083321	0.449677
C	-2.637391	0.13674	-0.21159
O	-1.759852	1.261317	-0.219009
H	2.167102	-2.142585	-0.152334
H	2.356205	-0.893395	-1.402264
H	3.303385	-0.793198	0.088686
H	1.21659	-0.470189	1.416164
H	1.784324	3.387772	-0.166922
H	-0.223427	-0.548718	-1.263024
H	-1.165083	-2.378807	-0.118014
H	-1.293316	0.159641	1.537967
H	-2.777593	-0.348961	-1.177988
H	-3.540354	0.246371	0.386862
