19
../xyz/dsC7O2H10nsd_4815.xyz
C         -2.05173       -2.15864        0.08713
C         -2.14973       -0.67515       -0.27304
C         -1.01212        0.15903        0.33260
O          0.20897       -0.33061       -0.21173
C          1.37210        0.20165        0.37665
C          2.57211       -0.39615       -0.33468
O          3.70644       -0.24778        0.03405
C         -1.18668        1.59308        0.06796
C         -1.32953        2.76546       -0.15622
H         -1.10509       -2.58066       -0.25788
H         -2.11407       -2.30812        1.17090
H         -2.86778       -2.72220       -0.37401
H         -2.12309       -0.53841       -1.35933
H         -3.09708       -0.25350        0.07852
H         -1.00220        0.00714        1.42616
H          1.41464        1.29796        0.27506
H          1.43656       -0.03036        1.45195
H          2.30669       -0.98232       -1.24201
H         -1.45851        3.80195       -0.35043
