19
../xyz/dsC7O2H10nsd_2006.xyz
O         -1.54858        1.47292       -0.59375
C         -1.12419        0.31990        0.04506
C         -2.00487       -0.87720        0.24657
C         -0.75495       -1.00651       -0.60134
C          0.46615       -1.13189        0.31729
O          1.71381       -0.97538       -0.32228
C          1.89703        0.40895       -0.60959
C          1.26100        1.15818        0.57164
C          0.09447        0.25184        0.98050
H         -2.20551        1.90576       -0.03715
H         -2.07708       -1.37330        1.21324
H         -2.92785       -0.85879       -0.32470
H         -0.79473       -1.31356       -1.63927
H          0.51784       -2.02893        0.94092
H          2.97031        0.58459       -0.71794
H          1.40393        0.68035       -1.55396
H          1.97278        1.24262        1.39785
H          0.92770        2.16168        0.29495
H         -0.11717        0.27961        2.05349
