19

C	1.813166	0.633251	0.56238
C	1.951249	-0.89462	0.314081
C	0.672652	-0.85473	-0.575171
C	-0.582176	-1.251842	0.160552
O	-1.819168	-0.986648	-0.51282
C	-1.512445	-0.221985	0.649996
C	-1.210026	1.245393	0.440989
O	-0.310868	1.50217	-0.617404
C	0.838447	0.692524	-0.650296
H	1.31576	0.849391	1.510909
H	2.714902	1.245543	0.499991
H	2.842552	-1.148877	-0.263668
H	1.914302	-1.543619	1.19283
H	0.722856	-1.395881	-1.524269
H	-0.552378	-2.217079	0.669786
H	-2.136108	-0.435386	1.520104
H	-2.129661	1.782619	0.185539
H	-0.842944	1.660218	1.39475
H	1.365811	0.990952	-1.559381
