19

O	2.504756	-0.844175	-0.047247
C	1.373309	-0.514043	-0.83004
C	0.2316	-0.065916	0.076499
C	-0.51706	-1.198221	0.795249
C	-1.86085	-1.261287	-0.01022
C	-2.05035	0.187357	-0.46871
C	-0.867713	0.790448	-0.463349
C	-0.105151	2.006989	-0.002674
O	0.719637	1.124282	0.827063
H	2.650818	-0.078956	0.524156
H	1.605119	0.276004	-1.561752
H	1.092569	-1.413459	-1.388428
H	0.030705	-2.143616	0.820049
H	-0.726581	-0.891461	1.824227
H	-1.796621	-1.967961	-0.848326
H	-2.697676	-1.595805	0.611123
H	-3.022577	0.636135	-0.634564
H	0.503068	2.522999	-0.755649
H	-0.656683	2.743313	0.59011
