19

O	1.154384	-1.20681	1.233545
C	0.797446	-0.526411	0.065399
C	1.838367	0.517265	-0.474158
C	0.875873	1.687202	-0.080736
C	-0.219166	0.654268	0.163119
C	-1.487896	0.56632	0.994285
O	-2.128048	-0.248572	-0.025572
C	-1.039355	-0.049066	-0.954309
C	-0.061527	-1.250171	-1.010678
H	1.765788	-1.914761	1.001139
H	2.781132	0.497537	0.07617
H	2.047307	0.439599	-1.544356
H	1.196459	2.185193	0.839056
H	0.677318	2.451656	-0.836993
H	-1.411832	0.047468	1.956481
H	-2.01878	1.518581	1.132562
H	-1.364116	0.424802	-1.886258
H	-0.535705	-2.165543	-0.648487
H	0.429279	-1.437915	-1.970634
