19

O	2.265022	-1.154734	-0.036652
C	1.367645	-0.353949	0.017898
C	1.304671	0.994424	-0.692879
C	0.342112	1.826982	0.163853
C	-0.678068	0.812981	0.747195
C	-1.877818	0.491397	-0.180862
O	-1.553406	-0.713491	-0.862593
C	-0.875519	-1.521635	0.084252
C	0.069663	-0.547582	0.819209
H	2.298288	1.422959	-0.836041
H	0.876229	0.803135	-1.686354
H	0.894188	2.300807	0.983079
H	-0.150096	2.627388	-0.395345
H	-1.038956	1.149601	1.721122
H	-2.793058	0.354845	0.417029
H	-2.071549	1.260323	-0.93419
H	-1.584683	-1.975854	0.795289
H	-0.350949	-2.318367	-0.44844
H	0.311535	-0.894741	1.825801
