19

C	0.748772	-1.676985	-0.931611
C	0.836938	-0.485228	-0.013481
O	2.151517	-0.224021	0.455647
C	-0.17326	-0.142356	1.059515
C	-1.595663	-0.688201	0.95815
C	-2.136172	-0.057266	-0.311235
C	-1.250389	0.759655	-0.886909
C	0.030426	0.803874	-0.13609
O	0.698665	2.019537	-0.092658
H	1.053226	-2.589661	-0.407895
H	-0.263946	-1.81394	-1.314275
H	1.410244	-1.54725	-1.798463
H	2.738015	-0.251937	-0.309611
H	0.244535	0.102434	2.029592
H	-1.621551	-1.785225	0.907793
H	-2.196814	-0.410463	1.83367
H	-3.120574	-0.288863	-0.701662
H	-1.397514	1.329738	-1.796618
H	1.58901	1.810076	0.223521
