19

C	2.212557	-0.109792	-0.240489
C	1.205133	0.8296	0.353613
O	0.334729	1.399533	-0.56406
C	-1.024472	1.553657	-0.188524
C	-1.654719	0.416623	0.633947
C	-1.372907	-0.999048	0.153868
O	-0.640092	-1.181727	-1.06439
C	0.006476	-1.514059	0.165554
C	1.124047	-0.652321	0.663056
H	2.089485	-0.290888	-1.30238
H	3.235407	-0.095319	0.118075
H	1.522484	1.488214	1.164438
H	-1.161787	2.491857	0.372876
H	-1.557198	1.657043	-1.138491
H	-1.333226	0.489643	1.680368
H	-2.735683	0.598943	0.63648
H	-2.189774	-1.710412	0.280869
H	0.159252	-2.586081	0.302693
H	1.437252	-0.933418	1.666523
