19
../xyz/dsC7O2H10nsd_3516.xyz
C         -0.99665        1.38540        1.32868
C         -0.87379        0.95223       -0.15158
C          0.43074        1.38394       -0.79214
C          1.62356        0.79157       -0.72933
C          2.00722       -0.44751        0.02905
O          1.01714       -0.95983        0.89555
C         -0.08900       -1.53548        0.24443
C         -1.12258       -0.54881       -0.31690
O         -2.10813       -0.98028       -0.86506
H         -0.87750        2.47004        1.40884
H         -1.98321        1.12305        1.72429
H         -0.22897        0.90681        1.93816
H         -1.69101        1.42128       -0.70830
H          0.35668        2.28962       -1.38944
H          2.45152        1.23886       -1.27771
H          2.33330       -1.23059       -0.68048
H          2.87357       -0.22850        0.66547
H          0.22193       -2.19777       -0.57919
H         -0.60541       -2.16007        0.98112
