19
../xyz/dsC7O2H10nsd_5957.xyz
C          3.52747       -0.32007       -0.35423
C          2.23628       -0.16220        0.42733
O          1.16785       -0.00404       -0.50768
C         -0.06010        0.16459        0.07622
C         -0.54449        1.46733        0.60628
C         -1.27341        0.84040       -0.59519
C         -2.12878       -0.29120       -0.11112
O         -3.25966       -0.62713       -0.31848
C         -0.93816       -0.98667        0.60822
H          4.37124       -0.44542        0.33063
H          3.47693       -1.19550       -1.00752
H          3.71117        0.56120       -0.97515
H          2.05141       -1.04434        1.05849
H          2.27903        0.71483        1.08997
H         -1.03842        1.55119        1.57036
H          0.05045        2.32941        0.32171
H         -1.35761        1.37884       -1.53069
H         -1.00103       -1.13407        1.69012
H         -0.72142       -1.93977        0.11630
