19

C	2.755399	-1.061831	0.116038
C	1.445148	-0.558717	-0.484224
C	0.147397	-0.949728	0.254415
C	-1.016776	-0.284863	-0.382268
C	-2.415403	-0.619654	0.092264
O	-3.347886	0.410037	-0.181167
C	-0.160258	0.535129	0.589952
C	1.13615	0.908145	-0.058995
O	1.805974	1.902843	-0.060042
H	2.890331	-2.130915	-0.075329
H	3.600543	-0.523371	-0.321172
H	2.782165	-0.903089	1.199243
H	1.418171	-0.749257	-1.563069
H	0.053605	-1.787266	0.934505
H	-0.963924	-0.041924	-1.442136
H	-2.784603	-1.500601	-0.443508
H	-2.391032	-0.875645	1.164352
H	-3.025719	1.21619	0.235899
H	-0.594192	0.981956	1.477792
