19
../xyz/dsC7O2H10nsd_5534.xyz
C          2.78983       -0.68402        0.30460
O          1.64793       -0.49652       -0.50671
C          0.94422        0.66197       -0.20610
C         -0.42819        0.86829       -0.88864
O         -0.71923        1.86876        0.16878
C         -0.17426        0.69917        0.89768
C         -1.03725       -0.21112        0.01664
C         -1.25016       -1.67736       -0.09406
C         -2.42117       -0.73356        0.16144
H          2.52266       -0.82557        1.36209
H          3.29796       -1.58142       -0.05479
H          3.48006        0.17012        0.23363
H          1.57470        1.56044       -0.20024
H         -0.65777        1.13563       -1.92025
H         -0.10542        0.77019        1.98359
H         -1.16552       -2.13764       -1.07276
H         -0.91697       -2.31050        0.72184
H         -3.12461       -0.56347       -0.64720
H         -2.87281       -0.73583        1.14825
