19
../xyz/dsC7O2H10nsd_5824.xyz
C          2.61015       -1.34865       -0.14564
O          2.01502       -0.09668       -0.43981
C          1.09291        0.32759        0.53072
C          0.58508        1.72369        0.11444
C         -0.90060        1.49947       -0.23184
C         -0.98370       -0.03603       -0.37366
O         -0.04038       -0.51795        0.59501
C         -2.29909       -0.60318       -0.12097
C         -3.40049       -1.04690        0.06021
H          1.86136       -2.14648       -0.08451
H          3.31067       -1.56709       -0.95450
H          3.16279       -1.31257        0.80561
H          1.55327        0.28324        1.52762
H          0.71297        2.44926        0.91984
H          1.16677        2.06221       -0.74486
H         -1.55227        1.81708        0.58543
H         -1.21754        2.01303       -1.14160
H         -0.65029       -0.33113       -1.37987
H         -4.37045       -1.44639        0.22566
