19
../xyz/dsC7O2H10nsd_5985.xyz
C         -3.38867       -0.18258       -0.02654
O         -2.00823       -0.42157        0.11674
C         -1.21993        0.69309       -0.23507
C          0.21354        0.32289       -0.03083
O          1.21568        1.31321       -0.26840
C          2.14134        0.40898        0.40716
C          2.30880       -0.75543       -0.60269
C          0.84193       -1.05671       -0.29379
C          0.94085       -0.36565        1.07008
H         -3.65432        0.05996       -1.06736
H         -3.90953       -1.09651        0.26830
H         -3.72786        0.64478        0.61616
H         -1.38418        0.98048       -1.28832
H         -1.47346        1.56911        0.38537
H          2.97433        0.92083        0.88395
H          2.60000       -0.47672       -1.62057
H          2.96623       -1.53724       -0.21325
H          0.24317       -1.91821       -0.55496
H          0.67890       -0.66717        2.07407
