19

O	-2.56199	-0.726277	0.510494
C	-1.9203	0.198072	0.079071
C	-0.445093	0.132099	-0.243366
C	0.039336	-1.192691	-0.83081
C	1.531874	-1.25459	-0.456357
C	1.585972	-0.628855	0.952382
C	0.542652	0.495616	0.924772
C	0.866893	1.726927	0.055364
O	-0.021164	1.291192	-0.997504
H	-2.368086	1.201563	-0.099216
H	-0.526516	-1.997812	-0.349567
H	-0.144817	-1.241296	-1.907423
H	1.935543	-2.269894	-0.483983
H	2.114967	-0.653288	-1.162083
H	1.29685	-1.371251	1.704716
H	2.581867	-0.262761	1.222774
H	0.108738	0.716064	1.900619
H	0.553894	2.690766	0.474724
H	1.904793	1.809112	-0.290811
