19
../xyz/dsC7O2H10nsd_4959.xyz
C         -2.56039       -0.46504       -0.49572
O         -1.68497       -0.16032        0.58083
C         -0.36078       -0.14371        0.22144
C          0.47916       -1.42931        0.10691
C          1.72576       -1.09570       -0.71169
C          1.68043        0.28232        0.00138
C          0.80310       -0.37185        1.15010
C          0.38196        0.95704       -0.54230
O          0.13098        2.25365       -0.05381
H         -2.33832       -1.45226       -0.92307
H         -3.57386       -0.46626       -0.08944
H         -2.49521        0.28781       -1.29227
H          0.01200       -2.39029        0.28500
H          2.58554       -1.69563       -0.39927
H          1.65809       -1.09643       -1.80639
H          2.56723        0.89597        0.14295
H          0.87965       -0.43136        2.22557
H          0.28524        1.01835       -1.63221
H         -0.04382        2.18095        0.89225
