19

O	-1.832546	0.893946	-0.996232
C	-1.094319	0.251442	0.007186
C	-1.733495	-0.985688	0.579023
C	-0.513596	-1.102828	-0.298986
O	0.688094	-1.450681	0.318827
C	1.81474	-0.882072	-0.329148
C	1.939393	0.618816	-0.252665
C	1.084791	1.498274	0.273128
C	-0.25675	1.163119	0.89465
H	-1.20035	1.299573	-1.601913
H	-1.61006	-1.181056	1.638121
H	-2.677818	-1.299981	0.150208
H	-0.649528	-1.497189	-1.30765
H	2.691474	-1.339322	0.147217
H	1.84195	-1.195764	-1.388786
H	2.872689	0.989304	-0.676227
H	1.372986	2.547036	0.269409
H	-0.101239	0.687638	1.86872
H	-0.829072	2.077269	1.081002
