19
../xyz/dsC7O2H10nsd_5350.xyz
C         -3.07710       -0.60453        0.39979
C         -2.19930       -0.01622       -0.71998
C         -0.81490        0.31119       -0.26885
C         -0.14890        1.47062       -0.15436
C          1.21802        1.01088        0.32304
O          0.88181       -0.02076        1.32401
C          0.26193       -0.68439        0.16607
C          1.50424       -0.18240       -0.66817
O          2.68963       -0.87539       -0.47051
H         -4.07465       -0.84757        0.02153
H         -2.64019       -1.52120        0.80838
H         -3.18534        0.10722        1.22330
H         -2.15192       -0.73704       -1.54827
H         -2.67120        0.88669       -1.12340
H         -0.45923        2.47986       -0.38349
H          1.97856        1.72139        0.64385
H          0.03019       -1.73853        0.31737
H          1.37756       -0.00834       -1.73848
H          2.76071       -1.00415        0.48602
