19
../xyz/dsC7O2H10nsd_3441.xyz
C         -3.18409       -0.33305       -0.07927
C         -1.70900       -0.08850       -0.05453
C         -1.07099        1.06384       -0.27227
C          0.42608        0.90876       -0.26200
O          1.07532        1.96353        0.42635
C          0.60376       -0.47036        0.41957
C         -0.72763       -1.22353        0.18532
C          1.87406       -1.18192        0.03639
O          2.83309       -0.62258       -0.44057
H         -3.45268       -1.06160       -0.85516
H         -3.53089       -0.75275        0.87361
H         -3.74158        0.58737       -0.27093
H         -1.54246        2.01257       -0.50270
H          0.80773        0.86231       -1.29537
H          2.01808        1.85628        0.25595
H          0.69049       -0.26286        1.49685
H         -0.67558       -1.88012       -0.69593
H         -1.01490       -1.86329        1.02803
H          1.90143       -2.27691        0.24015
