19

C	-2.244292	-1.120935	0.055238
C	-0.725205	-0.982519	0.05767
C	-0.175761	0.065413	1.087687
C	1.361208	-0.084508	1.211712
C	1.93972	-0.596091	-0.125197
O	1.213851	-0.142481	-1.269397
C	-0.193231	-0.026285	-1.058673
C	-0.416389	1.106209	-0.022582
O	-0.727284	2.259677	-0.057195
H	-2.582548	-1.718175	-0.797566
H	-2.59267	-1.61032	0.970394
H	-2.739289	-0.144757	-0.004445
H	-0.249061	-1.964935	0.087741
H	-0.671109	0.1944	2.052321
H	1.797888	0.880854	1.48793
H	1.613208	-0.794144	2.007978
H	2.968397	-0.254729	-0.268696
H	1.960799	-1.694277	-0.120053
H	-0.674457	0.000802	-2.037996
