19
../xyz/dsC7O2H10nsd_0828.xyz
O         -3.53465       -0.97120       -0.00449
C         -2.72323       -0.15152        0.34167
C         -1.49547        0.18751       -0.43411
O         -0.96830        1.49855       -0.19459
C         -0.21990        0.39324        0.29563
C          1.10674        0.09972       -0.34005
C          1.78718       -1.26438       -0.02268
C          3.15019       -0.52399        0.04838
C          2.37384        0.80838        0.22574
H         -2.82067        0.42716        1.28795
H         -1.46759       -0.16294       -1.46432
H         -0.24683        0.29511        1.38433
H          1.02917        0.25716       -1.41996
H          1.48229       -1.64179        0.95911
H          1.66962       -2.06798       -0.75282
H          3.84362       -0.81585        0.83970
H          3.67987       -0.56046       -0.90757
H          2.24551        1.06400        1.28268
H          2.73255        1.69307       -0.30398
