19

C	-2.502145	-0.97514	-0.421636
C	-1.798262	0.302249	-0.042081
O	-0.970011	0.937619	-1.029679
C	-0.351702	0.48404	0.180949
C	0.130058	1.57006	1.116885
C	0.611045	-0.695481	-0.005388
O	0.776311	-1.406001	1.222541
C	1.895737	-0.261407	-0.558205
C	2.96866	0.096688	-0.96555
H	-3.371031	-0.746643	-1.047717
H	-1.86104	-1.658434	-0.981146
H	-2.860357	-1.489785	0.476079
H	-2.43851	1.007833	0.493181
H	-0.608849	2.371827	1.181151
H	0.291758	1.166388	2.121474
H	1.072093	1.996353	0.758743
H	0.157058	-1.401156	-0.706327
H	1.537267	-1.031753	1.677977
H	3.910864	0.406362	-1.346157
