19

C	-2.104496	-0.653906	-0.895055
C	-0.913766	-0.37188	-0.016485
C	-0.618096	-1.231352	1.212919
C	0.34891	-1.212914	0.072837
C	1.562973	-0.291624	0.203464
O	2.188297	-0.084816	-1.058115
C	0.985684	1.065253	0.631174
C	-0.474017	1.053373	0.153599
O	-1.146032	2.024673	-0.089869
H	-1.925324	-0.313162	-1.919619
H	-2.332123	-1.723647	-0.923806
H	-2.985975	-0.123424	-0.522689
H	-0.355065	-0.757137	2.153001
H	-1.245164	-2.109688	1.322699
H	0.457007	-2.107351	-0.534101
H	2.289186	-0.682442	0.931421
H	2.484628	-0.938794	-1.389554
H	1.016725	1.205174	1.716864
H	1.53483	1.88991	0.174937
