19

C	-2.354071	-1.32468	0.094151
O	-1.35155	-0.755369	-0.737361
C	-0.273023	-0.274418	-0.034872
C	0.823354	-1.167759	0.57907
C	1.851825	-0.173437	-0.032121
O	3.046264	-0.197376	-0.124355
C	0.779214	0.70353	-0.596085
C	-0.201666	1.103646	0.531555
C	-1.261294	2.112925	0.142376
H	-2.757827	-0.587612	0.800785
H	-3.153255	-1.667436	-0.565744
H	-1.965122	-2.181322	0.661213
H	0.827876	-1.312838	1.663273
H	0.9062	-2.135412	0.074583
H	0.800755	1.272919	-1.51728
H	0.207899	1.237272	1.531514
H	-0.845905	3.124824	0.107579
H	-1.685481	1.87929	-0.837479
H	-2.078881	2.113437	0.870834
