19

C	2.02416	0.670466	0.025659
O	1.927209	-0.773984	0.050147
C	0.643158	-0.745596	-0.611064
C	0.618237	0.811484	-0.586396
C	-0.569569	1.114053	0.350173
C	-1.822928	0.68148	-0.433017
O	-1.714571	-0.756783	-0.502175
C	-0.557383	-1.11455	0.275497
C	-0.514141	-0.046277	1.372166
H	2.173425	1.093834	1.026992
H	2.841328	1.004693	-0.625617
H	0.647252	-1.27501	-1.567761
H	0.562439	1.348092	-1.534344
H	-0.613983	2.128459	0.749201
H	-2.751901	0.954398	0.084947
H	-1.857892	1.092444	-1.44885
H	-0.63992	-2.159308	0.574709
H	-1.38718	-0.084237	2.027688
H	0.396141	-0.083591	1.971153
