19
../xyz/dsC7O2H10nsd_5882.xyz
C         -4.68671        0.38126        0.17221
C         -3.18931        0.35898        0.48341
C         -2.38623       -0.43696       -0.56574
C         -0.95477       -0.47759       -0.29386
C          0.22401       -0.49269       -0.05035
C          1.63979       -0.55181        0.25639
O          2.31399        0.55119       -0.40561
C          3.63426        0.60763       -0.19470
O          4.27584       -0.15534        0.47473
H         -5.23778        0.94898        0.92764
H         -4.88390        0.84371       -0.80140
H         -5.10311       -0.63202        0.14755
H         -2.79670        1.38080        0.52794
H         -3.01502       -0.08196        1.47119
H         -2.77402       -1.46316       -0.62094
H         -2.55218       -0.00126       -1.56026
H          1.82598       -0.47838        1.33320
H          2.09029       -1.49053       -0.08353
H          4.04153        1.47412       -0.73849
