19
../xyz/dsC7O2H10nsd_0528.xyz
C          0.87677        1.37014        0.80102
C          0.95619        1.33298       -0.76424
C          0.22963       -0.03726       -0.73807
C         -1.22375       -0.19600       -1.16550
O         -1.97227        0.20870       -0.01129
C         -1.25372       -0.20875        1.16172
C          0.21288       -0.03625        0.79723
C          1.15757       -1.24968        0.64881
O          1.09032       -1.19487       -0.80432
H          1.82990        1.44163        1.33089
H          0.20930        2.14805        1.17937
H          0.40818        2.13315       -1.26743
H          1.96275        1.26984       -1.18136
H         -1.54280        0.44201       -1.99363
H         -1.41304       -1.24907       -1.42233
H         -1.60287        0.41791        1.98697
H         -1.48027       -1.26051        1.39920
H          2.18150       -1.10407        1.01311
H          0.76955       -2.20068        1.03437
