19
../xyz/dsC7O2H10nsd_4737.xyz
C         -0.38416       -1.10463       -1.23053
C         -0.38690       -0.19347        0.01474
C         -0.36377       -1.05428        1.29552
C         -1.63526        0.71800        0.01537
O         -2.84793       -0.02091        0.05944
C          0.85670        0.69887       -0.01270
O          0.80517        1.91094       -0.02485
C          2.14654        0.01820       -0.01590
C          3.21817       -0.53083       -0.01802
H         -1.24494       -1.77965       -1.19654
H         -0.43731       -0.51949       -2.15545
H          0.51829       -1.71975       -1.27098
H         -1.30136       -1.61155        1.36211
H          0.47078       -1.76007        1.28896
H         -0.27768       -0.42949        2.19056
H         -1.62696        1.34721        0.90926
H         -1.60429        1.39110       -0.85060
H         -3.03325       -0.34695       -0.82565
H          4.17092       -1.00268       -0.01925
