19
../xyz/dsC7O2H10nsd_2267.xyz
C         -2.28490       -0.94877       -0.00710
C         -0.97369       -0.20133        0.00556
C         -0.86121        1.05651       -0.88622
C          0.46470        1.70586       -0.38618
C          0.93988        0.70705        0.71256
C         -0.39785        0.28832        1.34738
C          1.28172       -0.57732       -0.03534
O          2.33964       -1.07613       -0.28508
O          0.08856       -1.10393       -0.45095
H         -2.22373       -1.84675        0.61374
H         -3.08517       -0.31089        0.38030
H         -2.54953       -1.25352       -1.02381
H         -0.82767        0.77191       -1.94011
H         -1.72236        1.71458       -0.74043
H          1.20738        1.83044       -1.17713
H          0.28830        2.68775        0.06116
H          1.74622        1.05900        1.35164
H         -0.30913       -0.51543        2.08292
H         -0.96176        1.12137        1.77604
