19
../xyz/dsC7O2H10nsd_5427.xyz
C          0.37982        2.68658       -0.15635
O          0.91881        1.40088        0.09731
C         -0.01631        0.49753        0.56433
C          0.21712       -0.95298        0.25814
O          1.27814       -1.32339       -0.54753
C          2.51588       -1.35565        0.14812
C         -0.91482       -0.22981       -0.45221
C         -2.28401       -0.51599       -0.15647
C         -3.43298       -0.74939        0.11499
H         -0.04596        3.13040        0.75529
H          1.20178        3.31301       -0.50892
H         -0.40418        2.64790       -0.92470
H         -0.48018        0.75097        1.51909
H         -0.05696       -1.67132        1.03260
H          2.48978       -2.07606        0.97920
H          3.27208       -1.67570       -0.57200
H          2.77756       -0.36555        0.53850
H         -0.66972        0.00360       -1.48476
H         -4.44806       -0.95895        0.34415
