19
../xyz/dsC7O2H10nsd_3875.xyz
C          2.21776       -0.91366        0.62852
C          1.28918       -0.52811       -0.51928
C          0.06287       -1.48372       -0.73793
C         -0.83588       -0.42127       -0.08891
C         -1.86522       -0.54431        0.94383
O         -2.18744       -0.15347       -0.40141
C          0.28538        0.58738       -0.16345
C          0.21689        1.98054       -0.60162
O          0.49952        1.63267        0.76507
H          2.90161       -0.09373        0.86688
H          1.65076       -1.14343        1.53687
H          2.81296       -1.79486        0.36884
H          1.86659       -0.33258       -1.42693
H         -0.18077       -1.63767       -1.79187
H          0.11388       -2.45226       -0.23516
H         -2.21780       -1.53174        1.23853
H         -1.96291        0.24013        1.69197
H          1.04977        2.41479       -1.15308
H         -0.75654        2.43661       -0.77234
