19

O	2.894248	-0.827768	-0.435285
C	2.065101	0.025329	0.325672
C	0.828766	-0.774276	0.82524
C	-0.088202	0.137364	-0.010217
C	-1.311693	-0.314614	-0.770647
C	-2.491695	-0.553237	0.151034
O	-3.579574	-0.055272	0.017731
C	0.11998	1.567271	0.416651
C	1.128474	0.9248	-0.49812
H	3.588882	-0.290977	-0.831045
H	2.64365	0.549876	1.100729
H	0.887072	-1.792741	0.434265
H	0.648801	-0.807169	1.904171
H	-1.609931	0.422228	-1.522715
H	-1.093551	-1.260725	-1.288265
H	-2.279919	-1.243487	1.000801
H	-0.535451	2.295236	-0.051552
H	0.384161	1.806464	1.445141
H	1.344498	1.309799	-1.488778
