19

C	2.422034	-0.454177	0.226476
C	1.069987	-0.54229	-0.473995
C	-0.051334	-1.309204	0.296033
C	-1.224127	-1.237171	-0.702951
C	-1.336955	0.293442	-0.59499
O	-1.724006	0.452966	0.80385
C	-0.378979	0.049072	1.090716
C	0.169859	0.670848	-0.224127
O	0.648568	1.951969	-0.417555
H	2.320017	-0.169782	1.278824
H	2.94071	-1.417548	0.189453
H	3.058696	0.294356	-0.254524
H	1.202207	-0.84529	-1.518755
H	0.157885	-2.244548	0.810381
H	-0.955875	-1.609434	-1.695069
H	-2.147087	-1.713409	-0.364876
H	-1.949182	0.864707	-1.292783
H	-0.048276	0.206069	2.115114
H	0.001492	2.572287	-0.061101
