19

O	2.634386	-0.61261	-0.269935
C	1.349837	-0.0819	-0.524154
C	0.216908	-1.073624	-0.274298
C	-0.119004	-0.395668	1.060742
C	0.774522	0.805522	0.633274
C	-0.191742	1.874449	0.098093
C	-1.30954	1.05299	-0.598572
C	-1.116825	-0.363278	-0.050585
O	-2.231493	-1.191036	0.08264
H	2.583295	-1.109252	0.55539
H	1.424175	0.389223	-1.510948
H	0.229699	-2.131644	-0.515905
H	-0.302606	-0.813497	2.041472
H	1.536038	1.167105	1.325022
H	-0.609367	2.452517	0.928908
H	0.30637	2.577986	-0.576254
H	-2.309351	1.407023	-0.33153
H	-1.231339	1.087358	-1.69117
H	-2.474995	-1.508594	-0.793631
