19

C	2.881531	-0.184656	-0.22843
C	1.749989	-0.068118	0.800848
C	0.383662	0.020401	0.180694
C	-0.205675	-1.086926	-0.723583
C	-1.62215	-0.494697	-0.647917
O	-1.927122	-0.648727	0.772094
C	-0.967076	0.387055	0.97403
C	-1.213046	1.032398	-0.386602
O	0.169672	1.199023	-0.676397
H	3.856864	-0.189651	0.266702
H	2.797656	-1.106723	-0.812113
H	2.855958	0.658366	-0.924431
H	1.758792	-0.931339	1.478277
H	1.907197	0.821555	1.422297
H	0.250482	-1.06677	-1.714828
H	-0.183484	-2.092918	-0.299891
H	-2.415613	-0.832868	-1.310953
H	-0.940725	0.845884	1.961039
H	-1.870923	1.859347	-0.645907
