19

O	2.499341	0.000371	-0.756089
C	2.286132	-0.000363	0.426029
O	1.080983	-0.000632	1.011097
C	-0.043576	4.3e-05	0.126624
C	-0.332888	1.316225	-0.628205
C	-1.78862	1.307685	-0.062982
C	-1.48794	-0.000109	0.721247
C	-1.788599	-1.307811	-0.063032
C	-0.333295	-1.315452	-0.629377
H	3.061584	-0.00082	1.20839
H	0.265711	2.146145	-0.246948
H	-0.21369	1.271769	-1.712468
H	-2.010142	2.165398	0.575736
H	-2.585207	1.220787	-0.806432
H	-1.683999	-5.1e-05	1.793222
H	-2.008972	-2.16576	0.575777
H	-2.58592	-1.221335	-0.805744
H	0.265839	-2.145708	-0.249716
H	-0.215083	-1.269629	-1.713695
