19

C	-2.767308	0.442284	0.098363
C	-1.310258	0.239955	-0.325434
C	-0.928671	-1.255028	-0.330969
C	0.565466	-1.526703	-0.358315
O	1.251423	-1.342464	0.874765
C	1.563014	-0.438381	-0.195878
C	1.06206	0.966153	-0.012873
O	1.726034	1.917147	-0.357117
C	-0.340902	1.064209	0.554909
H	-2.921321	0.117464	1.133849
H	-3.05614	1.495734	0.030227
H	-3.447298	-0.134529	-0.537635
H	-1.201611	0.611936	-1.353881
H	-1.329663	-1.743779	0.566747
H	-1.399013	-1.748049	-1.18901
H	0.889853	-2.409703	-0.909503
H	2.560685	-0.529296	-0.620421
H	-0.347359	0.669771	1.578105
H	-0.628202	2.118052	0.581521
