19

C	0.909315	2.634557	-0.264456
C	1.54823	1.417802	0.406744
C	1.150534	0.067724	-0.238117
C	1.961793	-1.100876	0.370981
O	1.659983	-2.357013	-0.195234
C	-0.283039	-0.179683	-0.142486
C	-1.4744	-0.355847	-0.040924
C	-2.884905	-0.616617	0.076182
O	-3.744775	0.235334	0.070744
H	1.219833	3.55795	0.232858
H	1.204756	2.706877	-1.317005
H	-0.182136	2.578942	-0.225444
H	2.641114	1.499045	0.363287
H	1.277355	1.390334	1.468614
H	1.403193	0.119561	-1.309604
H	3.031903	-0.857785	0.283135
H	1.728215	-1.186642	1.436837
H	1.927989	-2.345544	-1.119765
H	-3.139052	-1.691649	0.175453
