19

O	-2.745459	-0.884367	0.181696
C	-2.072512	0.178439	-0.479975
C	-0.627002	0.269697	-0.093946
C	-0.135253	1.0286	1.109153
C	0.389097	1.419611	-0.246195
C	1.458089	0.43832	-0.781619
C	2.349159	-0.310791	0.229015
O	1.313448	-1.304837	0.457969
C	0.469042	-0.719681	-0.563902
H	-2.56335	-0.7962	1.123461
H	-2.177281	-0.036952	-1.54988
H	-2.562953	1.14924	-0.296101
H	-0.85038	1.730795	1.528269
H	0.491375	0.535265	1.843544
H	0.222396	2.414075	-0.643062
H	1.869624	0.680571	-1.759715
H	3.241791	-0.769556	-0.213733
H	2.632586	0.217449	1.146813
H	0.168557	-1.436226	-1.332097
