19
../xyz/dsC7O2H10nsd_3841.xyz
C          2.40023       -1.10644       -0.05516
C          1.08930       -0.51628        0.45746
C         -0.19148       -1.30823        0.10942
C         -1.30630       -0.27377       -0.01840
O         -2.46373       -0.62373       -0.69961
C         -1.46304        0.70323        1.07925
C         -0.65356        1.11136       -0.16157
C          0.81664        0.89818       -0.10202
O          1.66928        1.65644       -0.49970
H          2.36069       -1.26416       -1.13804
H          3.22606       -0.42011        0.14666
H          2.61568       -2.06723        0.42177
H          1.15724       -0.41004        1.54975
H         -0.05993       -1.80129       -0.86376
H         -0.43473       -2.08891        0.83740
H         -2.21851       -0.89277       -1.59245
H         -2.43430        1.17962        1.14688
H         -0.95578        0.56150        2.02763
H         -1.05162        1.89349       -0.79520
