19

C	2.398184	-0.29953	-0.772481
C	1.158613	-0.118897	0.068676
C	0.815055	-1.061329	1.174083
C	-0.030198	-1.055845	-0.108209
C	-1.414063	-0.499934	-0.12615
O	-2.35869	-1.14628	-0.523222
C	-1.532753	0.959451	0.290072
C	-0.317043	1.734767	-0.23417
O	0.878014	1.233573	0.342209
H	2.271672	0.16407	-1.75626
H	3.256177	0.17115	-0.282287
H	2.62271	-1.359847	-0.918811
H	1.425895	-1.941927	1.338458
H	0.381887	-0.627823	2.067828
H	0.092759	-1.917939	-0.754923
H	-2.4764	1.353297	-0.096239
H	-1.551337	1.038566	1.384055
H	-0.276781	1.680457	-1.333145
H	-0.367936	2.789552	0.048506
