19
../xyz/dsC7O2H10nsd_4314.xyz
C         -0.94521       -1.61932       -1.13119
C         -0.46048       -0.93114        0.15986
C          1.07139       -0.79381        0.23237
O          1.49737       -0.47957        1.55326
C          1.60138        0.23979       -0.77552
C          0.81612        1.52046       -0.73116
C         -0.42832        1.60391       -0.23908
C         -1.15708        0.42652        0.28455
O         -2.27481        0.52839        0.75080
H         -0.70086       -1.03410       -2.02391
H         -0.48684       -2.60775       -1.23705
H         -2.03041       -1.74495       -1.10111
H         -0.78402       -1.53022        1.01646
H          1.52641       -1.76784        0.02329
H          1.15421        0.39216        1.78041
H          2.65735        0.43398       -0.55920
H          1.57150       -0.16677       -1.79662
H          1.29720        2.41317       -1.12577
H         -0.97183        2.54329       -0.20791
