19

C	1.781679	1.51267	0.340148
C	0.741853	0.432085	0.636253
C	0.9748	-0.879804	-0.150081
O	1.936089	-1.570957	-0.32059
C	-0.454545	-0.861548	-0.725751
O	-1.368049	-1.497747	0.196458
C	-1.741553	-0.228655	0.78575
C	-0.680531	0.531925	-0.032982
C	-1.08354	1.801185	-0.748352
H	1.50828	2.465312	0.803819
H	2.753098	1.203728	0.736006
H	1.904641	1.679572	-0.734354
H	0.683212	0.268655	1.71855
H	-0.638412	-1.124838	-1.771525
H	-2.779377	0.027673	0.535379
H	-1.62225	-0.224285	1.876141
H	-1.235198	2.622727	-0.038304
H	-0.325912	2.125364	-1.467731
H	-2.02139	1.658562	-1.294837
