19

C	2.911494	-0.562852	-0.087303
C	1.450933	-0.230568	-0.044527
C	0.257187	-1.13639	-0.360858
C	-0.607219	-0.004113	0.252446
C	-2.031612	-0.157066	0.696109
O	-2.866257	-0.459292	-0.408194
O	-0.453003	1.081785	-0.728445
C	0.890492	1.188637	-0.259301
C	0.659404	0.502379	1.043558
H	3.14465	-1.429884	0.541114
H	3.233204	-0.794691	-1.109149
H	3.519948	0.275808	0.269174
H	0.045153	-1.400471	-1.401335
H	0.257687	-2.029416	0.270928
H	-2.119375	-0.989379	1.402412
H	-2.353917	0.761402	1.210979
H	-2.698756	0.220957	-1.071322
H	1.480281	2.052923	-0.536653
H	0.861136	0.752645	2.076223
