19

O	3.70669	0.82928	0.010572
C	3.156247	-0.426469	0.387192
C	1.777673	-0.612647	-0.062002
C	0.630794	-0.698522	-0.419863
C	-0.760305	-0.804598	-0.848558
C	-1.694819	0.157491	-0.120754
O	-1.364453	1.511046	-0.267513
C	-2.237316	-0.200043	1.224724
C	-3.15468	-0.19937	0.013449
H	3.067465	1.504971	0.260266
H	3.808757	-1.184237	-0.061304
H	3.206517	-0.572507	1.478463
H	-0.829394	-0.619887	-1.930923
H	-1.11655	-1.831217	-0.69835
H	-1.512119	1.756198	-1.188167
H	-1.95302	-1.150705	1.661912
H	-2.347003	0.614073	1.931182
H	-3.503676	-1.15044	-0.375154
H	-3.864443	0.616086	-0.06753
