19
../xyz/dsC7O2H10nsd_1246.xyz
C          3.14149        0.24385       -0.15158
C          1.63864        0.47870       -0.34236
C          1.22760        1.88374        0.11430
C          0.83294       -0.62004        0.40402
O          1.25221       -1.93673        0.06140
C         -0.61058       -0.46198        0.21190
C         -1.79716       -0.34264        0.01284
C         -3.21400       -0.23409       -0.22262
O         -3.88116        0.73692        0.05143
H          3.71765        0.95865       -0.74676
H          3.42499        0.38022        0.89897
H          3.42612       -0.76777       -0.44667
H          1.39840        0.37480       -1.41044
H          1.80199        2.64137       -0.42701
H          0.16552        2.07553       -0.05699
H          1.42755        2.01992        1.18372
H          1.04994       -0.52835        1.47694
H          0.97074       -2.10728       -0.84468
H         -3.66483       -1.13389       -0.68866
