19
../xyz/dsC7O2H10nsd_0135.xyz
C          0.33680        0.32060        1.57685
C          0.29094        1.51193        0.57565
C          0.17709        0.95017       -0.84561
O          1.31215        0.11235       -1.12899
C          1.41881       -1.00463       -0.23978
C          0.26597       -0.99943        0.78557
C         -1.01770       -1.04007       -0.04197
O         -1.95683        0.02343        0.14573
C         -1.07433        0.08369       -0.98416
H          1.26505        0.33360        2.15676
H         -0.49406        0.37684        2.28242
H         -0.55705        2.16807        0.78549
H          1.20348        2.11192        0.63003
H          0.21841        1.73925       -1.59948
H          1.41095       -1.92781       -0.83610
H          2.38586       -0.95040        0.27890
H          0.35361       -1.86530        1.44782
H         -1.45760       -2.00472       -0.28474
H         -1.55679       -0.00122       -1.95423
