19

C	-2.843292	0.245405	0.521855
C	-1.987525	-0.526748	-0.490868
C	-0.513404	-0.394659	-0.224994
C	0.68296	-0.999401	-1.045735
C	1.395628	-0.21506	0.117322
O	2.73975	-0.115775	0.367225
C	0.295193	-0.818588	1.05962
C	0.358908	0.871802	-0.170727
O	0.292737	2.059948	-0.289238
H	-3.906905	0.153086	0.284103
H	-2.693441	-0.134922	1.537577
H	-2.584856	1.308568	0.518776
H	-2.266054	-1.587902	-0.488142
H	-2.193086	-0.157722	-1.503489
H	0.774091	-2.085685	-0.970999
H	0.828233	-0.641707	-2.067276
H	2.99414	0.809527	0.272264
H	0.373268	-1.899233	1.201164
H	0.083913	-0.293904	1.993289
