19
../xyz/dsC7O2H10nsd_3735.xyz
C          2.85786       -0.19729       -0.52496
C          1.49246       -0.73834       -0.19255
O          1.04982       -0.60017        1.17706
C          0.36748        0.11975        0.17364
C          0.18177        1.63537        0.13730
O         -1.21172        1.45962       -0.22196
C         -1.11262        0.03654       -0.09861
C         -2.13984       -0.79710        0.59128
C         -1.92609       -0.91200       -0.91213
H          2.98062       -0.11327       -1.61018
H          3.00852        0.78948       -0.07905
H          3.63909       -0.86557       -0.14881
H          1.25802       -1.71381       -0.62275
H          0.30107        2.12714        1.10963
H          0.73637        2.18533       -0.63117
H         -1.78704       -1.59728        1.23350
H         -3.03744       -0.29180        0.93046
H         -1.44869       -1.80210       -1.30954
H         -2.68137       -0.47531       -1.55676
