19
../xyz/dsC7O2H10nsd_3660.xyz
C          2.38927       -0.59568       -0.75731
C          1.13277       -1.06874       -0.07638
O          0.95915       -0.70045        1.29393
C          0.06428       -0.13956        0.35506
C         -1.47160       -0.29522        0.33536
C         -2.07116       -1.44766       -0.45800
C         -1.57384        1.14541       -0.26841
C         -0.06461        1.33145       -0.00550
O          0.68976        2.26104       -0.03717
H          2.30323       -0.71553       -1.84249
H          2.57414        0.45642       -0.53036
H          3.24673       -1.18770       -0.42081
H          0.82065       -2.09217       -0.29252
H         -1.84660       -0.30426        1.36403
H         -3.16330       -1.37819       -0.48708
H         -1.70769       -1.44772       -1.49159
H         -1.81350       -2.41307       -0.00958
H         -1.81058        1.16126       -1.33759
H         -2.22502        1.85626        0.24499
