19
../xyz/dsC7O2H10nsd_1933.xyz
C         -2.51512       -0.14965       -0.75901
C         -1.23722        0.03717        0.00891
C         -1.03335       -0.51191        1.39860
C         -0.16828       -1.00055        0.24835
C          1.15418       -0.32256       -0.07016
O          2.05901       -1.03938       -0.85173
C          1.63877        0.81922        0.80004
C          0.78733        1.08519       -0.43027
O         -0.59616        1.27146       -0.28507
H         -3.23053        0.64290       -0.51515
H         -2.32937       -0.12058       -1.83732
H         -2.97602       -1.10963       -0.50976
H         -0.60799        0.12609        2.16398
H         -1.78320       -1.20499        1.76728
H         -0.26553       -2.02128       -0.10205
H          2.59517       -1.58058       -0.26180
H          1.23110        0.97857        1.79094
H          2.68887        1.07184        0.69028
H          1.21680        1.61946       -1.27069
