19
../xyz/dsC7O2H10nsd_3012.xyz
O          1.98387       -0.95268       -0.66230
C          0.62098       -0.58647       -0.68168
C         -0.19475       -1.25944        0.45460
C          0.49642       -0.23335        1.41690
C          0.32567        0.68865        0.14343
O          1.14667        1.78202       -0.13703
C         -1.20938        0.83393        0.10298
C         -2.02147        0.09513       -0.93402
C         -1.59384       -0.61927        0.32753
H          2.48572       -0.14810       -0.84032
H          0.23838       -0.64475       -1.70377
H         -0.13209       -2.33414        0.61585
H         -0.05164        0.05174        2.31890
H          1.53601       -0.47279        1.63335
H          1.04025        2.44285        0.55492
H         -1.65790        1.65003        0.66092
H         -3.07292        0.36555       -0.96517
H         -1.62269       -0.15402       -1.90915
H         -2.34916       -0.90625        1.05073
