19

C	-1.937295	-1.51282	-0.213986
C	-1.419037	-0.249377	0.444914
O	-1.947397	0.950338	-0.167532
C	-0.629103	1.529532	-0.27846
C	0.032458	0.225392	0.188604
C	1.130445	0.128655	1.29886
C	2.023192	-0.605651	0.290007
O	2.170613	0.255908	-0.845218
C	0.981472	-0.54136	-0.745771
H	-1.721731	-1.51496	-1.286261
H	-1.487139	-2.402251	0.240594
H	-3.022352	-1.578803	-0.087522
H	-1.65461	-0.264904	1.520688
H	-0.399111	1.853202	-1.299856
H	-0.496125	2.379193	0.404645
H	1.531252	1.068814	1.686831
H	0.809034	-0.505019	2.131055
H	2.806395	-1.333683	0.464657
H	0.755865	-1.197779	-1.577836
