19
../xyz/dsC7O2H10nsd_3932.xyz
O         -2.71977       -0.44396       -0.48175
C         -1.58363       -0.18835        0.30496
C         -1.08377        1.29287        0.13121
C          0.31333        0.69116        0.06374
C          0.91141        0.02903        1.35324
C          1.12386       -1.12421        0.33942
C          2.07829       -0.36417       -0.64415
O          1.45861        0.96283       -0.72395
C         -0.21650       -0.70070       -0.31974
H         -2.93427       -1.37960       -0.40185
H         -1.75404       -0.46416        1.35204
H         -1.42603        1.66273       -0.83885
H         -1.31179        2.01921        0.91438
H          1.79546        0.51670        1.77049
H          0.19000       -0.19252        2.13846
H          1.42855       -2.13707        0.61166
H          3.09354       -0.26984       -0.24573
H          2.11779       -0.80567       -1.64608
H         -0.36776       -0.91448       -1.38105
