19
../xyz/dsC7O2H10nsd_0203.xyz
C          2.09606        0.55135        0.02996
C          1.06111       -0.11864       -0.86574
O          0.58333       -1.43477       -0.68064
C         -0.37528       -1.26991        0.37324
C         -1.72337       -0.64484       -0.04398
C         -1.63713        0.84695       -0.48875
C         -0.49580        1.66030        0.19656
C          0.62578        0.66715        0.33257
O          0.24164       -0.35509        1.25717
H          2.66709       -0.04090        0.73538
H          2.62381        1.38755       -0.41953
H          0.93846        0.26600       -1.87273
H         -0.50032       -2.23906        0.86287
H         -2.19412       -1.24336       -0.83085
H         -2.36138       -0.72705        0.84381
H         -1.45823        0.87665       -1.56859
H         -2.60747        1.32758       -0.32721
H         -0.22496        2.52275       -0.42080
H         -0.79088        2.03458        1.18228
