19

C	2.705149	0.038725	1e-05
C	1.215596	0.173697	2.4e-05
C	0.50041	1.301902	-0.000178
C	-0.988033	1.048098	-0.000188
O	-1.352077	0.310239	1.161677
C	-0.621202	-0.916277	1.233783
C	0.300956	-1.035069	0.000171
C	-0.621113	-0.916655	-1.233533
O	-1.352054	0.309851	-1.16179
H	3.053753	-0.518942	0.878642
H	3.053873	-0.517266	-0.879648
H	3.195352	1.016155	0.000938
H	0.908504	2.3062	-0.000267
H	-1.602777	1.947179	-0.000339
H	-0.041774	-0.938391	2.165854
H	-1.339045	-1.747195	1.250369
H	0.835127	-1.988412	0.000337
H	-0.041611	-0.938985	-2.165554
H	-1.33893	-1.747597	-1.249968
