19

O	2.730795	-0.526956	0.026978
C	1.922573	0.631809	-0.096982
C	0.46497	0.313552	-0.003938
O	0.007262	-0.550421	-1.040841
C	-1.374692	-0.668419	-0.657036
C	-1.816757	0.808134	-0.545056
C	-0.676112	1.22846	0.376043
C	-0.334657	0.006777	1.240534
C	-1.281504	-1.110407	0.820279
H	2.377114	-1.170287	-0.597485
H	2.205267	1.305955	0.71752
H	2.120355	1.154021	-1.04678
H	-1.901096	-1.313019	-1.357619
H	-1.794706	1.317434	-1.512346
H	-2.80817	0.918931	-0.096822
H	-0.525362	2.244383	0.715771
H	0.086741	0.094507	2.232607
H	-0.837929	-2.104391	0.924286
H	-2.24959	-1.087948	1.328713
