19
../xyz/dsC7O2H10nsd_3524.xyz
C          2.54670        0.23217       -0.40946
C          1.47954       -0.34852        0.54006
C          0.48029        0.73931        1.00899
C         -0.54858        0.99345       -0.07557
O         -0.70137        2.05776       -0.62496
C         -1.37630       -0.24575       -0.44920
O         -2.41115       -0.44667        0.52518
C         -0.49502       -1.45924       -0.57298
C          0.75652       -1.50344       -0.10980
H          3.14477        0.99252        0.10237
H          3.22420       -0.55049       -0.76460
H          2.08041        0.69728       -1.28355
H          2.00391       -0.73390        1.42435
H         -0.04581        0.38214        1.90289
H          0.98856        1.67329        1.25834
H         -1.89142       -0.02363       -1.38872
H         -2.05083       -1.01762        1.21220
H         -0.94425       -2.33567       -1.03393
H          1.33178       -2.42047       -0.22336
