19

C	2.42557	-1.152643	-0.1978
C	1.380643	-0.09272	-0.080335
C	1.520141	1.255398	0.547776
C	0.396732	0.334939	0.993244
C	-0.665818	0.255261	-0.114896
C	-1.531883	1.449592	-0.451955
O	0.371663	-0.035752	-1.105435
C	-1.481362	-1.021083	0.07803
O	-2.633604	-1.05121	0.421
H	1.97557	-2.146193	-0.286144
H	3.043973	-0.979687	-1.085759
H	3.08139	-1.141279	0.677243
H	2.317999	1.349421	1.278375
H	1.318523	2.152314	-0.029929
H	0.264208	0.012273	2.017402
H	-2.352977	1.517938	0.265997
H	-0.955457	2.376523	-0.434806
H	-1.965703	1.327687	-1.44912
H	-0.896137	-1.945764	-0.122154
