19
../xyz/dsC7O2H10nsd_0428.xyz
C          2.25785       -0.98628        0.53128
O          2.45193        0.02533       -0.46167
C          1.18395       -0.62469       -0.40659
C         -0.00000        0.20639        0.00003
C         -0.24088        1.51266       -0.71531
C          0.24092        1.51270        0.71527
C         -1.18400       -0.62461        0.40670
C         -2.25780       -0.98637       -0.53122
O         -2.45200        0.02542        0.46152
H          2.82854       -1.90109        0.38045
H          2.21081       -0.62336        1.55658
H          1.00161       -1.30150       -1.24429
H          0.46866        1.79698       -1.48404
H         -1.27120        1.79652       -0.89473
H          1.27126        1.79654        0.89465
H         -0.46856        1.79712        1.48401
H         -1.00176       -1.30125        1.24455
H         -2.21064       -0.62363       -1.55659
H         -2.82850       -1.90115       -0.38029
