19

O	2.705841	-0.831156	-0.537935
C	2.160914	0.033302	0.09725
C	0.743832	-0.060756	0.666765
O	0.20842	1.24699	0.849012
C	-0.436834	1.598732	-0.379717
C	-1.094432	0.313671	-0.873436
C	-2.321649	-0.185285	-0.056456
C	-1.494729	-1.40009	0.449795
C	-0.225441	-0.828781	-0.239571
H	2.665437	0.994626	0.346789
H	0.839249	-0.510409	1.66522
H	-1.138359	2.408204	-0.159298
H	0.301526	1.965099	-1.111571
H	-1.217742	0.290989	-1.957061
H	-2.620168	0.507423	0.734932
H	-3.2049	-0.432859	-0.64893
H	-1.431475	-1.51878	1.535066
H	-1.81452	-2.352399	0.020475
H	0.316884	-1.503324	-0.902006
