19

O	4.565357	-0.221155	7.2e-05
C	3.254999	-0.765439	-0.001553
C	2.269593	0.396366	0.001214
C	0.810918	-0.065084	-0.001287
C	-0.172732	1.123158	0.002472
C	-1.570097	0.718897	0.000529
C	-2.71859	0.342675	-0.001113
C	-4.100913	-0.056196	-0.00363
O	-4.486746	-1.203357	0.00375
H	5.194077	-0.948657	7.5e-05
H	3.083757	-1.394996	-0.890122
H	3.083438	-1.399559	0.883684
H	2.470017	1.018442	0.882421
H	2.471375	1.023609	-0.876015
H	0.60995	-0.686888	-0.881333
H	0.608847	-0.693223	0.873999
H	0.013076	1.756451	0.880436
H	0.014169	1.763204	-0.870321
H	-4.816659	0.791458	-0.013184
