19
../xyz/dsC7O2H10nsd_2503.xyz
C          2.49460        0.29648        0.18612
C          0.99852        0.15005       -0.00493
C          0.28158        1.47128       -0.24817
O         -1.12270        1.39668       -0.40950
C         -1.79531        0.52511        0.47387
C         -1.15922       -0.85838        0.46684
O         -0.82666       -1.25494       -0.89742
C          0.55983       -1.18187       -0.58020
C          0.32178       -0.87635        0.87777
H          2.72226        0.94963        1.03653
H          2.96567       -0.67272        0.37976
H          2.96754        0.72659       -0.70398
H          0.53127        2.13864        0.59775
H          0.65356        1.94929       -1.16158
H         -1.80722        0.90838        1.50993
H         -2.82733        0.48359        0.11235
H         -1.78842       -1.60943        0.95401
H          1.22751       -1.87324       -1.08278
H          0.73943       -1.29259        1.78548
