19

O	1.984502	-1.288761	-0.014451
C	0.988207	-0.316804	-0.016612
C	0.55021	0.466101	1.25726
C	0.041722	1.492186	0.203828
C	1.284793	1.073495	-0.649198
C	-1.068207	0.732461	-0.554938
C	-2.129756	-0.065495	0.229158
O	-1.354149	-1.286134	0.131967
C	-0.359126	-0.63618	-0.695632
H	1.61307	-2.094962	0.361153
H	-0.159503	-0.005903	1.937968
H	1.417107	0.840934	1.804169
H	-0.141909	2.531899	0.469859
H	1.222792	1.171334	-1.737673
H	2.221701	1.494646	-0.280356
H	-1.412224	1.248909	-1.451632
H	-2.312081	0.231345	1.268846
H	-3.091802	-0.167731	-0.287501
H	-0.247034	-1.125909	-1.668163
