19
../xyz/dsC7O2H10nsd_2665.xyz
C         -1.70813        1.59128       -0.12798
C         -0.81139        0.68755        0.70729
C         -0.92690       -0.88714        0.31185
O         -2.12285       -1.34186       -0.24386
C          0.30725       -0.67405       -0.65566
C          1.86169       -0.58036       -0.47645
C          1.68804       -0.34730        1.02211
C          0.63965        0.49581        0.23421
O          1.74817        0.92323       -0.68255
H         -2.76118        1.37566        0.07827
H         -1.52487        2.64307        0.10849
H         -1.53400        1.46623       -1.20199
H         -0.92988        0.90930        1.77270
H         -0.73643       -1.52157        1.17737
H         -2.28684       -0.85965       -1.06120
H         -0.02190       -0.38377       -1.65718
H          2.67335       -1.05309       -1.03441
H          1.33933       -1.17646        1.64139
H          2.47853        0.23458        1.49561
