19

C	-4.13849	-0.463167	-0.000103
C	-2.669803	-0.896267	-0.000559
C	-1.729753	0.297992	0.000918
O	-0.37946	-0.206813	0.000593
C	0.589151	0.728642	-6.5e-05
O	0.387051	1.919312	-0.000133
C	1.897006	0.119263	-0.000899
C	3.016284	-0.326068	-0.002162
C	4.364371	-0.866616	-0.000384
H	-4.801842	-1.332444	-0.001222
H	-4.377503	0.136883	0.884614
H	-4.377395	0.139083	-0.883352
H	-2.456289	-1.516324	0.877439
H	-2.456212	-1.514185	-0.880047
H	-1.874281	0.93193	-0.880666
H	-1.87458	0.929881	0.883945
H	4.40715	-1.825885	-0.526666
H	5.066381	-0.179191	-0.483636
H	4.711247	-1.032416	1.025436
