19

O	0.997793	1.83301	-0.317695
C	0.895164	0.499955	0.037091
C	1.887362	-0.184462	0.936906
C	1.716271	-0.664692	-0.488974
C	0.449076	-1.523825	-0.586033
C	-0.397037	-0.319452	-0.073865
C	-1.443588	-0.366264	1.055359
O	-2.423282	0.302481	0.235806
C	-1.552063	0.255917	-0.914724
H	0.837711	2.373013	0.464382
H	2.789891	0.392601	1.112168
H	1.572025	-0.803333	1.77513
H	2.540481	-0.662048	-1.190512
H	0.184211	-1.799508	-1.61043
H	0.433595	-2.425095	0.036791
H	-1.769552	-1.375414	1.343946
H	-1.203507	0.201522	1.964505
H	-1.935594	-0.418025	-1.693142
H	-1.376456	1.249297	-1.34228
