19

C	-2.923963	-0.115319	0.052391
C	-1.49549	0.094803	-0.437481
O	-0.788251	-1.110101	-0.134884
C	0.595773	-1.066035	-0.317429
C	1.451383	-1.04602	0.931359
C	1.324228	0.186041	0.050128
O	2.418166	0.506655	-0.771861
C	0.464265	1.331525	0.450153
C	-0.840489	1.305747	0.192878
H	-2.93822	-0.241819	1.138906
H	-3.54867	0.743929	-0.209701
H	-3.350355	-1.011011	-0.406132
H	-1.514519	0.238044	-1.532821
H	0.961071	-1.619839	-1.179798
H	0.926085	-1.054331	1.879414
H	2.397939	-1.575427	0.900141
H	3.115461	0.86109	-0.208746
H	0.940758	2.192562	0.913084
H	-1.483108	2.149915	0.427614
