19
../xyz/dsC7O2H10nsd_4696.xyz
C         -3.24689        0.31122       -0.22548
O         -1.99389       -0.16719       -0.73316
C         -1.02472       -0.32703        0.18790
O         -1.16845       -0.08599        1.36032
C          0.24038       -0.88055       -0.43847
C          1.51330       -0.37942        0.27607
C          2.75090       -1.19085       -0.15121
C          1.71240        1.04954        0.03553
C          1.88315        2.21773       -0.19085
H         -3.12062        1.28718        0.24931
H         -3.90685        0.38792       -1.08953
H         -3.65700       -0.38593        0.50964
H          0.18863       -1.97335       -0.34930
H          0.26201       -0.64400       -1.50456
H          1.34841       -0.52162        1.35085
H          3.64339       -0.83440        0.36876
H          2.61198       -2.25050        0.08554
H          2.92717       -1.09733       -1.22715
H          2.03054        3.25360       -0.37168
