19
../xyz/dsC7O2H10nsd_0739.xyz
O         -2.20060       -1.53595        0.07817
C         -1.38371       -0.66232       -0.02439
C         -1.74828        0.81663        0.00299
C         -0.59564        1.77375        0.31897
C          0.63215        1.35413       -0.49206
C          0.98327       -0.07023       -0.14476
C          2.30777       -0.67268       -0.48144
C          1.95093       -0.38458        0.96627
O         -0.08953       -1.00204       -0.26554
H         -2.14479        1.03353       -0.99814
H         -2.58812        0.92295        0.69286
H         -0.88882        2.80362        0.09404
H         -0.35474        1.73470        1.38786
H          0.41957        1.43488       -1.56651
H          1.49152        1.99774       -0.28260
H          2.30326       -1.70987       -0.79539
H          3.04436       -0.04678       -0.97340
H          1.71665       -1.23500        1.59549
H          2.44311        0.43994        1.47122
