19

C	1.630742	-0.834885	-1.240644
C	1.085053	-0.217835	0.065964
C	2.063467	-0.487983	1.231599
C	-0.269796	-0.858101	0.434427
O	-1.212622	-0.666773	-0.635216
C	-2.388653	-0.090299	-0.334944
O	-2.771915	0.241734	0.751248
C	0.907855	1.22817	-0.102209
C	0.768193	2.414421	-0.236411
H	0.930038	-0.681425	-2.063256
H	2.586567	-0.377324	-1.508311
H	1.786795	-1.911347	-1.111424
H	1.697758	-0.050214	2.164489
H	2.192883	-1.565559	1.378364
H	3.041451	-0.052281	1.012902
H	-0.143213	-1.938488	0.560805
H	-0.676564	-0.428496	1.350844
H	-2.961442	0.021961	-1.268002
H	0.640849	3.46255	-0.351363
