19

O	3.763681	-0.353106	-0.108499
C	2.591938	-0.548298	0.092397
C	1.59862	0.528257	0.48081
C	0.389712	0.553316	-0.451218
C	-0.846267	1.364121	0.001727
C	-1.551069	0.012496	-0.027853
C	-2.556103	-0.585137	0.896844
C	-2.886341	-0.363971	-0.575756
O	-0.360199	-0.688612	-0.402302
H	2.150558	-1.564045	0.000705
H	1.244548	0.312081	1.498151
H	2.108128	1.496999	0.481321
H	0.707656	0.766012	-1.479678
H	-0.75383	1.819792	0.990531
H	-1.209791	2.107012	-0.710267
H	-2.383269	-1.606619	1.218693
H	-3.025123	0.052925	1.639231
H	-2.928147	-1.241184	-1.212382
H	-3.581532	0.42606	-0.841591
