19

C	-2.307302	-0.832262	0.488171
C	-1.505129	0.207508	-0.260257
O	-1.915624	1.329528	-0.461642
C	-0.126865	-0.171169	-0.782307
C	0.662177	-1.36924	-0.201713
C	1.986824	-0.700563	-0.626422
C	1.084823	0.363996	0.051572
C	1.377646	1.763534	0.483547
O	0.751921	-0.657482	1.095829
H	-2.432422	-1.733168	-0.124186
H	-1.75227	-1.124956	1.38487
H	-3.283939	-0.428205	0.757664
H	-0.068817	-0.000555	-1.861895
H	0.400318	-2.426645	-0.172898
H	2.857335	-1.001079	-0.041837
H	2.199283	-0.592132	-1.692966
H	1.669818	2.366954	-0.381199
H	0.4915	2.218711	0.933548
H	2.195769	1.773883	1.209855
