19

C	0.083171	1.97749	0.942776
C	0.047144	0.787943	0.025169
C	1.204803	0.133245	-0.766796
O	2.276505	-0.427403	-0.053371
C	-0.00851	-0.748262	-1.127893
C	-0.98005	0.477762	-1.126788
C	-1.983447	-0.200992	-0.162726
C	-0.586308	-0.614953	0.329921
O	-0.21011	-1.353951	1.447888
H	0.807665	1.81691	1.748134
H	0.380934	2.882288	0.401921
H	-0.893722	2.164701	1.401905
H	1.640136	0.726325	-1.577759
H	1.899333	-0.932474	0.678671
H	-0.079075	-1.622323	-1.777637
H	-1.189549	1.11718	-1.980991
H	-2.568643	0.455056	0.489007
H	-2.614628	-0.987231	-0.590475
H	-0.574419	-2.242992	1.369118
