19
../xyz/dsC7O2H10nsd_5883.xyz
C          4.55912       -0.53809        0.10409
O          3.19159       -0.39563        0.41102
C          2.51139        0.38649       -0.55178
C          1.10460        0.51101       -0.19470
C         -0.05846        0.63460        0.08832
C         -1.47149        0.75051        0.42240
C         -2.32153       -0.40576       -0.15547
C         -3.75829       -0.33125        0.31031
O         -4.72075       -0.36498       -0.41075
H          4.71204       -1.03742       -0.86617
H          5.07601        0.43454        0.07351
H          5.00450       -1.15058        0.89100
H          2.96848        1.38929       -0.62440
H          2.60432       -0.07103       -1.55271
H         -1.58731        0.77778        1.51429
H         -1.86034        1.70792        0.05277
H         -2.29736       -0.41161       -1.24753
H         -1.90371       -1.35695        0.20083
H         -3.87543       -0.24210        1.41721
