19

O	2.853631	-0.711237	0.258069
C	1.969758	0.322548	-0.152452
C	0.570431	-0.058319	0.304521
C	-0.019612	-1.321984	-0.358506
C	-1.52136	-1.064039	-0.481966
C	-2.2377	-0.615799	0.746441
C	-1.77529	0.423957	-0.272756
C	-0.453425	1.055814	0.003264
O	-0.195424	2.234262	-0.063218
H	3.74268	-0.471938	-0.019735
H	2.236471	1.2929	0.287405
H	1.978022	0.444601	-1.247739
H	0.611375	-0.184911	1.394865
H	0.412274	-1.443278	-1.358672
H	0.204322	-2.234317	0.20089
H	-2.080029	-1.60518	-1.237021
H	-3.30981	-0.769951	0.792829
H	-1.740654	-0.66322	1.709819
H	-2.517115	0.998017	-0.812727
