19

C	-2.184765	1.600772	-0.277465
C	-1.387951	0.363209	0.012098
C	-1.773092	-0.683308	1.044299
C	-1.56031	-1.088803	-0.379651
O	-0.165623	-1.2724	-0.644013
C	0.074171	0.144004	-0.397223
C	1.21448	0.408256	0.583821
C	2.52026	-0.191492	0.100839
O	3.520821	0.442979	-0.11721
H	-2.005635	1.961213	-1.296573
H	-3.25769	1.410711	-0.174418
H	-1.929295	2.412106	0.41462
H	-1.081503	-1.027144	1.80836
H	-2.809227	-0.619742	1.363861
H	-2.270035	-1.604649	-1.01613
H	0.283466	0.641026	-1.354544
H	1.35223	1.485308	0.720119
H	0.970026	-0.04708	1.551678
H	2.489318	-1.292204	-0.047504
