19

O	-2.214903	0.587132	-1.7e-05
C	-0.846214	0.338316	-7e-06
C	0.052307	1.567054	-8e-06
C	1.377197	0.769904	1e-06
C	1.188198	-0.123037	-1.25559
C	-0.22676	-0.680999	-1.019391
O	-0.186275	-1.712957	7e-06
C	-0.22677	-0.680988	1.019392
C	1.188184	-0.123017	1.255602
H	-2.673241	-0.260847	7.2e-05
H	-0.086042	2.187291	-0.890632
H	-0.086053	2.187301	0.890608
H	2.292056	1.363963	1e-06
H	1.223556	0.484295	-2.167162
H	1.921462	-0.928785	-1.346653
H	-0.782063	-0.992797	-1.907663
H	-0.78208	-0.992777	1.907664
H	1.223531	0.484328	2.167165
H	1.921448	-0.928763	1.346685
