19
../xyz/dsC7O2H10nsd_0522.xyz
C         -1.84619       -0.54039       -0.67958
C         -1.91976        0.62998        0.37275
C         -0.37206        0.54800        0.44438
C          0.12837       -0.66222        1.28616
O          0.95146       -1.42374        0.38011
C          1.01303       -0.62281       -0.77420
O          1.72060        0.60290       -0.48205
C          0.82756        1.47119        0.30027
C         -0.39018       -0.06984       -0.96879
H         -1.90971       -1.52749       -0.21955
H         -2.54070       -0.49616       -1.51968
H         -2.26648        1.55591       -0.09370
H         -2.47991        0.46587        1.29637
H          0.72964       -0.32767        2.13983
H         -0.67807       -1.29973        1.66132
H          1.56168       -1.14768       -1.55402
H          1.34237        1.73507        1.23038
H          0.61233        2.38342       -0.26886
H         -0.39212        0.70177       -1.74259
