19
../xyz/dsC7O2H10nsd_3348.xyz
O         -0.49361        1.95088        0.14704
C          0.43192        1.05045       -0.37309
C          1.46985        0.57650        0.59815
C          2.50770       -0.27886       -0.13352
C          1.36553       -1.23817       -0.61093
C          0.34370       -0.36940        0.13507
C         -0.87379       -0.86826        0.87615
C         -2.14940       -0.87034        0.05159
O         -2.49596        0.04495       -0.65915
H         -1.35271        1.67569       -0.20939
H          0.71704        1.22573       -1.41561
H          1.59070        1.07545        1.55237
H          3.07589        0.23134       -0.91847
H          3.21055       -0.77491        0.53868
H          1.21930       -1.33110       -1.69300
H          1.46504       -2.24139       -0.18733
H         -0.70433       -1.86802        1.29114
H         -1.07991       -0.20359        1.72644
H         -2.79812       -1.76733        0.15161
