19

C	-2.139613	-1.379464	-0.407758
C	-1.266087	-0.205789	-0.100817
C	-1.574804	1.095455	-0.131528
C	-0.421089	1.992932	0.27285
C	0.7299	1.016305	0.487864
C	1.176873	0.180394	-0.696581
O	2.42999	-0.446838	-0.610421
C	0.169994	-0.392289	0.270753
O	0.512703	-1.513813	1.009712
H	-1.752817	-1.94655	-1.263749
H	-2.160811	-2.074653	0.438244
H	-3.163173	-1.069395	-0.632961
H	-2.538127	1.493171	-0.431683
H	-0.192886	2.738717	-0.500888
H	-0.649066	2.557803	1.186841
H	1.469003	1.194306	1.261972
H	0.869248	0.455804	-1.705885
H	3.106293	0.223849	-0.468931
H	1.41975	-1.733099	0.754022
