19

C	1.289789	1.962312	-0.24553
C	0.900875	0.516835	-0.138407
C	1.718976	-0.657421	-0.684851
O	1.38255	-1.502682	0.446279
C	0.636754	-0.44605	1.040982
C	-0.47495	-0.005991	0.15206
C	-1.696838	0.807717	0.566477
C	-2.457617	-0.204027	-0.319628
O	-1.229345	-0.866357	-0.701503
H	1.181413	2.325742	-1.274908
H	0.664374	2.594175	0.392733
H	2.33225	2.117383	0.054205
H	1.393944	-1.088287	-1.637978
H	2.797116	-0.459924	-0.706871
H	0.673107	-0.341215	2.122133
H	-1.942431	0.791994	1.630143
H	-1.715936	1.838411	0.206107
H	-3.132198	-0.881008	0.216502
H	-2.979214	0.214784	-1.186908
