19

C	-1.961621	1.100365	0.654186
C	-0.712484	0.224095	0.68803
C	-0.800217	-0.95421	-0.312877
O	-1.681204	-1.731336	-0.555015
C	0.445221	-0.570218	-1.048351
C	1.568274	-0.341038	-0.072683
O	1.728434	-1.235092	0.991974
C	0.518217	0.713539	-0.117976
C	0.783769	2.138064	-0.512307
H	-1.82578	2.012527	1.243924
H	-2.225379	1.391091	-0.367984
H	-2.809507	0.547763	1.067731
H	-0.474051	-0.071376	1.714003
H	0.629703	-0.707672	-2.107777
H	2.501461	-0.068652	-0.570317
H	2.206191	-0.781058	1.694863
H	1.034364	2.746687	0.365219
H	1.624361	2.202374	-1.210481
H	-0.086163	2.596156	-0.992985
