19
../xyz/dsC7O2H10nsd_3551.xyz
C         -2.42074       -0.41577       -0.52675
C         -1.21717       -0.59973        0.40542
C         -0.73372        0.73937        0.99901
C          0.27172        1.28825       -0.02055
O          0.54482        2.44629       -0.20347
C          0.86995        0.10420       -0.77880
C          1.98286       -0.61911        0.01942
O          1.05235       -1.60857        0.49968
C          0.00647       -1.11246       -0.37186
H         -3.27964       -0.01580        0.02022
H         -2.19640        0.28495       -1.34037
H         -2.72021       -1.36631       -0.97969
H         -1.46643       -1.32098        1.19010
H         -1.52478        1.46491        1.19922
H         -0.19172        0.57356        1.93843
H          1.07516        0.33457       -1.82284
H          2.76014       -1.06039       -0.61672
H          2.45985       -0.06032        0.83294
H         -0.24953       -1.84454       -1.14624
