19
../xyz/dsC7O2H10nsd_3930.xyz
O         -2.91331       -0.05329       -0.45219
C         -1.56408       -0.39455       -0.32649
C         -0.99623       -0.74752        1.12460
C          0.27284        0.00511        0.68142
C          1.26759        1.21354        0.75665
C          1.00703        0.95112       -0.79546
C          1.15916       -0.55611       -0.49681
O          2.40557       -1.14380       -0.25306
C         -0.50324        0.78116       -0.37614
H         -3.09902        0.67358        0.15241
H         -1.40073       -1.20683       -1.03447
H         -1.57119       -0.21480        1.89049
H         -0.91095       -1.80088        1.40442
H          0.85718        2.14295        1.15894
H          2.28638        1.06720        1.13349
H          1.44251        1.51890       -1.62228
H          0.66565       -1.22490       -1.20154
H          2.90242       -0.59992        0.36576
H         -0.96885        1.70493       -0.01181
