19
../xyz/dsC7O2H10nsd_3870.xyz
C         -2.75454       -0.28374        0.10368
C         -1.38064       -0.18356       -0.52369
O         -0.55669       -1.37370       -0.31747
C          0.52875       -0.57232        0.13723
C          0.16097        0.17446        1.39286
C         -0.29841        0.72955        0.07699
C          0.09280        2.08197       -0.43799
C          1.89211       -0.79914       -0.35207
O          2.84516       -0.13074       -0.01611
H         -3.32796        0.62675       -0.10032
H         -3.30055       -1.13159       -0.32140
H         -2.69389       -0.42366        1.18592
H         -1.46464       -0.00165       -1.60358
H         -0.52295       -0.31424        2.08002
H          0.98457        0.71514        1.84732
H          1.13545        2.29923       -0.18719
H         -0.01042        2.13897       -1.52674
H         -0.53036        2.86890        0.00290
H          1.97665       -1.62563       -1.09035
