19
../xyz/dsC7O2H10nsd_3812.xyz
C          2.60727       -0.54836       -0.24272
C          1.26496       -0.49918        0.48402
C          0.11430       -1.28367       -0.21773
C         -1.11686       -0.39469       -0.04001
O         -2.39010       -0.95391        0.03252
C         -1.00443        1.03778       -0.54516
O          0.36137        1.38738       -0.76446
C          0.67281        0.90958        0.59435
C         -0.82502        0.74339        0.91464
H          2.96117       -1.57828       -0.35304
H          2.51060       -0.10885       -1.23995
H          3.37542        0.01081        0.30269
H          1.38479       -0.88208        1.50655
H          0.34528       -1.45494       -1.27521
H         -0.06555       -2.25714        0.24727
H         -2.65895       -1.20381       -0.85840
H         -1.77776        1.56013       -1.09769
H          1.26596        1.64392        1.14324
H         -1.38933        1.01331        1.79575
