19

C	1.869702	-0.79998	0.194574
O	1.99259	0.620831	-0.107463
C	0.658022	0.602593	-0.690334
C	-0.447205	1.604922	-0.306987
C	-1.382631	0.63305	0.463756
C	-0.379996	-0.111392	1.341256
C	0.345343	-0.680213	0.100433
C	-0.807972	-1.409252	-0.561804
O	-1.853031	-0.405205	-0.436807
H	2.329051	-1.412306	-0.593397
H	2.306851	-1.055636	1.164467
H	0.73769	0.456889	-1.77546
H	-0.086636	2.410582	0.340007
H	-0.930587	2.043737	-1.182399
H	-2.258373	1.086299	0.929122
H	0.247852	0.544803	1.94566
H	-0.831067	-0.885409	1.967417
H	-0.644508	-1.616232	-1.62518
H	-1.11831	-2.336096	-0.061449
