19

C	-2.346615	1.32034	-0.245734
C	-1.31658	0.26321	-0.043036
O	-0.854274	-0.485302	-1.175687
C	-0.24357	-1.401908	-0.221138
C	-1.16891	-0.860969	0.926053
C	-0.162943	0.290711	0.984557
C	0.940258	-0.589077	0.377801
C	1.979821	0.012672	-0.557177
O	2.846825	0.917863	0.118725
H	-2.635232	1.757048	0.714959
H	-1.958786	2.122805	-0.882414
H	-3.241533	0.907208	-0.721154
H	-0.144957	-2.417763	-0.598083
H	-1.813307	-1.313925	1.666471
H	-0.082712	1.053903	1.749321
H	1.423452	-1.167319	1.172431
H	2.628277	-0.77713	-0.953859
H	1.478067	0.489882	-1.408646
H	2.317561	1.674927	0.388718
