19

C	2.447877	-0.538635	-0.559928
C	1.03696	-0.393955	-0.101033
O	0.597938	-1.142051	1.045144
C	-0.581555	-0.296305	1.040551
C	-1.36056	-0.76939	-0.219901
O	-2.599306	-0.127094	-0.426665
C	-0.190597	-0.18392	-1.00768
C	0.155763	0.784146	0.148045
C	0.386118	2.258027	0.238426
H	2.650385	0.142363	-1.391975
H	3.145234	-0.311655	0.252554
H	2.641005	-1.560396	-0.903271
H	-1.057735	-0.172524	2.012106
H	-1.552285	-1.844447	-0.278993
H	-2.426114	0.810408	-0.56995
H	-0.109039	-0.022921	-2.076657
H	1.023187	2.599883	-0.584585
H	-0.550281	2.825823	0.184355
H	0.88255	2.526825	1.177696
