19

O	2.191261	-1.456474	-0.374458
C	1.428882	-0.6367	0.077255
C	1.750008	0.851823	0.127167
C	0.57442	1.719085	-0.362227
C	-0.723157	1.37859	0.385945
C	-1.040525	-0.095336	0.228072
C	-2.424978	-0.576815	0.16968
O	-1.649091	-0.444406	-1.025746
C	0.075437	-1.029632	0.671418
H	1.968485	1.102956	1.176044
H	2.661032	1.026521	-0.449631
H	0.819864	2.778298	-0.238263
H	0.417925	1.550506	-1.433994
H	-0.614099	1.614997	1.453252
H	-1.557155	1.972547	0.001388
H	-2.6548	-1.59979	0.465994
H	-3.247551	0.130145	0.274366
H	0.171402	-0.970295	1.765542
H	-0.142979	-2.064939	0.403077
