19

C	1.451257	-1.744433	0.22019
C	0.350863	-0.769344	-0.055426
O	-0.202169	-0.753013	-1.377122
C	-0.839912	0.498488	-0.986109
C	-1.909267	-4.3e-05	-1.7e-05
C	-0.839911	-0.498524	0.986099
O	-0.202236	0.753005	1.377127
C	0.350823	0.769364	0.055441
C	1.451178	1.744497	-0.220176
H	2.271491	-1.619606	-0.492843
H	1.838114	-1.592541	1.232281
H	1.084901	-2.773559	0.143183
H	-1.095355	1.14636	-1.822663
H	-2.526529	0.777459	0.454174
H	-2.526482	-0.777574	-0.454223
H	-1.095344	-1.146407	1.822648
H	1.838285	1.592354	-1.232135
H	1.084714	2.773613	-0.143553
H	2.271252	1.619938	0.493085
