19

C	-1.780914	1.491687	0.260747
C	-0.738916	0.649112	-0.486424
C	0.705228	1.13774	-0.310944
C	1.255413	0.62197	1.052784
C	1.493594	-0.708785	0.306244
C	1.655452	0.111094	-0.992285
O	0.275461	-1.478162	0.265078
C	-0.867889	-0.831922	-0.086872
O	-1.910944	-1.42582	-0.082618
H	-1.798638	2.511769	-0.134591
H	-2.772398	1.050001	0.144353
H	-1.557635	1.547824	1.331126
H	-0.991529	0.673968	-1.55538
H	0.808322	2.197284	-0.555298
H	2.198274	1.101988	1.324166
H	0.590286	0.596381	1.919544
H	2.266388	-1.405005	0.630196
H	2.673618	0.492771	-1.098009
H	1.335367	-0.360496	-1.925292
