19
../xyz/dsC7O2H10nsd_4192.xyz
C          2.75287       -1.03206       -0.11087
C          1.56796       -0.16809        0.31521
C          1.28715        1.03165       -0.62679
C         -0.18775        1.32571       -0.44285
O         -0.62807        1.34818        0.90915
C         -0.83054        0.12966        0.16244
C          0.22125       -0.93295        0.39176
C         -2.25168       -0.19373       -0.12336
O         -2.65451       -1.30334       -0.37006
H          2.59199       -1.46012       -1.10705
H          3.67902       -0.44856       -0.14328
H          2.90764       -1.86155        0.58683
H          1.76940        0.23950        1.31044
H          1.91879        1.89784       -0.40535
H          1.45837        0.76018       -1.67681
H         -0.71766        1.99725       -1.11531
H          0.08951       -1.45768        1.34233
H          0.13124       -1.67933       -0.40626
H         -2.92315        0.69252       -0.09150
