19

O	1.50433	-1.551672	-0.303391
C	0.152163	-1.162427	-0.292164
C	-0.233977	0.029754	-1.203906
C	-1.64305	0.348742	-0.664588
O	-1.704263	-0.169024	0.679436
C	-0.386248	-0.588455	1.033254
C	0.48047	0.591478	1.448196
C	0.992337	1.403803	0.518388
C	0.755053	1.185901	-0.958992
H	2.001776	-0.877231	0.175248
H	-0.425719	-2.051259	-0.561384
H	-0.254699	-0.237064	-2.262924
H	-1.848949	1.426837	-0.656943
H	-2.428691	-0.14324	-1.249563
H	-0.479924	-1.327397	1.831436
H	0.647848	0.774002	2.505378
H	1.601312	2.258177	0.805292
H	0.376188	2.110375	-1.413821
H	1.709825	0.979597	-1.462202
