19

C	-2.516651	0.353208	0.062365
O	-1.536203	-0.423916	0.737119
C	-0.333349	-0.490171	0.077146
C	0.011778	-1.108575	-1.300366
C	1.362422	-0.637956	-0.717902
C	0.968274	-1.019253	0.748458
C	1.347513	0.368488	1.314588
C	0.735196	0.653226	-0.073021
O	0.465431	1.861575	-0.690742
H	-2.763296	-0.07699	-0.917965
H	-3.411533	0.344788	0.68818
H	-2.179356	1.386712	-0.081069
H	-0.129781	-2.18893	-1.400301
H	-0.343514	-0.580272	-2.189106
H	2.360159	-0.722528	-1.143895
H	1.092521	-2.001631	1.197676
H	0.779102	0.71489	2.181669
H	2.417073	0.569712	1.437385
H	1.293697	2.339185	-0.811195
