19

O	-0.235732	0.234292	1.492922
C	-0.199117	0.380007	0.100557
C	0.552278	1.56992	-0.363902
C	1.155606	0.180902	-0.606228
C	2.344774	-0.21874	0.175297
O	3.201817	-0.969447	-0.227495
C	-1.435155	-0.059934	-0.630256
C	-2.797563	0.173701	-0.028263
C	-2.258409	-1.230105	-0.149806
H	-0.223288	-0.707271	1.699402
H	0.198444	2.115555	-1.230789
H	1.027253	2.173843	0.402033
H	1.129945	-0.217081	-1.615063
H	2.400343	0.227473	1.192394
H	-1.356617	0.052768	-1.707462
H	-2.826377	0.605171	0.965482
H	-3.603096	0.481695	-0.684959
H	-1.968536	-1.732582	0.767243
H	-2.68123	-1.892837	-0.896093
