19
../xyz/dsC7O2H10nsd_4950.xyz
C         -2.11905       -1.45435       -0.22080
C         -1.32571       -0.62860        0.80334
C         -0.07148       -0.04917        0.20668
C         -0.05696        1.28172       -0.54510
O         -1.23397        2.00935       -0.35794
C          0.87381        1.13577        0.60914
C          2.11414        0.35671        0.15400
C          1.15745       -0.82075       -0.17370
O          1.34699       -1.97839       -0.42769
H         -2.45142       -0.82610       -1.05305
H         -1.50274       -2.26177       -0.62548
H         -3.00532       -1.89801        0.24293
H         -1.94428        0.18549        1.19082
H         -1.05209       -1.26337        1.65472
H          0.34549        1.33129       -1.55969
H         -1.00749        2.94530       -0.35358
H          0.79202        1.75151        1.49550
H          2.69379        0.78225       -0.67181
H          2.79476        0.07783        0.96331
