19

C	2.865797	-0.606649	-0.405939
O	2.688726	0.802983	-0.254561
C	1.760514	-0.070613	0.398586
C	0.354022	-0.047784	-0.091273
C	-0.674745	0.753016	0.673329
C	-1.908336	1.162649	-0.11095
O	-2.315916	-0.00604	-0.819907
C	-1.965686	-1.148322	-0.043295
C	-0.711007	-0.755319	0.71593
H	2.660321	-0.998798	-1.401508
H	3.743658	-1.02619	0.084293
H	1.870896	-0.094388	1.485281
H	0.249708	-0.070417	-1.173302
H	-0.367081	1.345559	1.527197
H	-2.696115	1.507577	0.578589
H	-1.732411	1.945937	-0.85531
H	-2.766293	-1.411647	0.667405
H	-1.834237	-1.983353	-0.739501
H	-0.434272	-1.311692	1.604259
