19
../xyz/dsC7O2H10nsd_4574.xyz
C         -0.14826        2.33799        0.33214
C          0.30129        1.04544       -0.37175
C          1.71991        0.67884        0.09297
O          2.12620       -0.59792       -0.36080
C          1.34879       -1.63507        0.19807
C         -0.11768       -1.34557        0.18359
C         -0.61643       -0.13639       -0.10948
C         -2.09159        0.01345       -0.21065
O         -2.89436       -0.84817        0.07082
H         -0.26056        2.17954        1.41011
H          0.59583        3.12799        0.18382
H         -1.09951        2.71277       -0.05314
H          0.33540        1.23658       -1.45381
H          2.45044        1.39174       -0.29989
H          1.76163        0.72490        1.19510
H          1.56031       -2.53576       -0.39108
H          1.67032       -1.85657        1.23398
H         -0.80358       -2.16077        0.39941
H         -2.44120        0.99614       -0.59396
