19
../xyz/dsC7O2H10nsd_1824.xyz
O          0.16706        2.06498        0.08792
C          0.45498        0.71020        0.00615
C          1.36313        0.04147        1.07477
C          1.36441       -1.07230       -0.00423
C          1.38368        0.04792       -1.07250
O         -0.00556       -1.52980       -0.02292
C         -0.70349       -0.28789       -0.00253
C         -1.96638       -0.13981        0.77320
C         -1.98364       -0.12885       -0.75335
H         -0.30817        2.32423       -0.70959
H          2.32552        0.54480        1.17820
H          0.92487       -0.19668        2.04549
H          2.03878       -1.92465       -0.00018
H          2.34664        0.55389       -1.15713
H          0.96111       -0.18920       -2.05143
H         -2.35583       -1.02155        1.26956
H         -2.13477        0.79867        1.29162
H         -2.37464       -1.00602       -1.25685
H         -2.19174        0.81065       -1.25882
