19

C	2.403306	-0.286421	0.318997
C	0.947298	-0.02474	-0.001695
C	0.62129	1.396862	-0.46318
O	-0.746514	1.650885	-0.148803
C	-1.306354	0.571439	0.581985
C	-1.91758	-0.578011	-0.28406
C	-0.636162	-1.402434	-0.050824
O	0.428568	-1.012378	-0.946609
C	-0.157839	-0.381838	1.01537
H	2.541409	-1.316772	0.656625
H	3.021304	-0.138874	-0.573253
H	2.760459	0.391696	1.100814
H	1.2542	2.134176	0.050461
H	0.778347	1.492955	-1.544022
H	-1.963076	0.982272	1.351951
H	-2.785173	-1.028711	0.209232
H	-2.162575	-0.335296	-1.319933
H	-0.697385	-2.485653	0.071047
H	0.072301	-0.572987	2.060804
