19

C	-2.184755	-0.737875	-0.421129
C	-1.228618	0.419762	-0.209705
O	-1.45986	1.529936	-0.629976
C	0.083069	0.094816	0.521516
C	-0.141452	-0.674474	1.828621
C	1.09194	1.281559	0.540255
C	1.95505	0.606937	-0.569751
C	1.052365	-0.623125	-0.466859
O	1.075726	-1.735998	-0.906038
H	-2.692856	-0.982307	0.518195
H	-2.933099	-0.456747	-1.162957
H	-1.641095	-1.632975	-0.740083
H	0.815066	-0.869018	2.32276
H	-0.767004	-0.101064	2.520591
H	-0.620085	-1.639138	1.643979
H	0.642179	2.232847	0.260356
H	1.61214	1.380906	1.494453
H	1.881157	1.088445	-1.550375
H	3.01107	0.421937	-0.3565
