19

C	-2.358659	-0.859066	1.00098
C	-1.737308	-0.409013	-0.330828
O	-2.367444	0.769519	-0.824236
C	-0.275977	-0.094232	-0.169315
C	0.745383	-0.937516	-0.379542
C	2.038272	-0.292961	-0.068203
O	3.140647	-0.784283	-0.150619
C	1.719933	1.142868	0.384587
C	0.187955	1.267847	0.303863
H	-1.875766	-1.768437	1.369403
H	-2.260715	-0.075796	1.758114
H	-3.424961	-1.07414	0.864799
H	-1.840198	-1.229621	-1.05768
H	-3.316044	0.609643	-0.850361
H	0.67815	-1.958466	-0.735627
H	2.109163	1.294767	1.395681
H	2.243969	1.851082	-0.263557
H	-0.270108	1.523667	1.266622
H	-0.146719	2.037854	-0.397817
