19
../xyz/dsC7O2H10nsd_4165.xyz
O          2.56862       -0.53739        0.02665
C          1.32442       -0.25487       -0.58456
C          0.90359        1.24634       -0.43527
C         -0.34306        1.12215        0.47301
O         -0.03372       -0.04650        1.25928
C          0.15941       -0.95440        0.15588
C         -1.12695       -0.80672       -0.65213
C         -2.36697       -0.45348        0.13089
C         -1.49671        0.64660       -0.41248
H          2.45869       -0.34245        0.96555
H          1.42070       -0.57047       -1.62617
H          1.71462        1.79883        0.04568
H          0.68035        1.72616       -1.39140
H         -0.54163        1.95992        1.14222
H          0.40536       -1.94688        0.53530
H         -1.20002       -1.27300       -1.62714
H         -3.31354       -0.61184       -0.37394
H         -2.37820       -0.63440        1.19941
H         -1.84786        1.29152       -1.20895
