19

O	0.386742	-0.383802	1.509088
C	-0.034036	-0.094493	0.173206
C	-0.925183	1.18459	0.088416
C	-2.383002	0.69497	-0.102692
C	-2.217975	-0.762716	-0.457007
C	-0.958141	-1.18046	-0.343534
C	1.223944	0.036635	-0.666887
C	2.522178	-0.511852	-0.262025
O	2.25342	0.892475	-0.179928
H	-0.392931	-0.667078	1.997143
H	-0.778888	1.79212	0.983307
H	-0.620688	1.792912	-0.76793
H	-2.994841	0.81118	0.801973
H	-2.90545	1.252046	-0.888741
H	-3.05547	-1.38719	-0.751197
H	-0.601042	-2.188871	-0.521688
H	1.016243	0.148595	-1.732778
H	2.602298	-1.019101	0.69489
H	3.242757	-0.804038	-1.025119
