19

C	2.595987	-0.100775	-0.787881
C	1.319705	-0.027566	-0.00126
C	0.977236	-1.005398	1.088691
C	0.125048	-0.929946	-0.17652
C	-1.061344	-0.021107	-0.095554
C	-2.253382	-0.147689	-0.939171
O	-2.300152	-0.461236	0.459768
C	-0.516668	1.319054	0.413812
O	0.883928	1.308031	0.173105
H	2.904984	-1.140266	-0.92567
H	2.471015	0.362171	-1.77167
H	3.398459	0.427451	-0.262746
H	1.611959	-1.878657	1.193398
H	0.554172	-0.643963	2.019768
H	0.115138	-1.760068	-0.872396
H	-2.803505	0.74446	-1.237674
H	-2.355972	-0.999172	-1.611613
H	-0.949367	2.185859	-0.094447
H	-0.736582	1.408384	1.487359
