19

C	-1.164057	1.508978	-0.623292
C	-1.2088	0.722541	0.668486
C	-1.766339	-0.688039	0.638287
O	-1.092651	-1.364364	-0.428812
C	0.141681	-0.719235	-0.695668
C	1.365115	-1.184421	0.116044
O	2.213411	-0.043676	0.199579
C	1.42278	1.153354	0.19027
C	0.028914	0.713398	-0.196971
H	-1.736936	1.150228	-1.47438
H	-1.11561	2.589826	-0.536751
H	-1.226938	1.265781	1.606841
H	-1.578403	-1.184076	1.602632
H	-2.840546	-0.750083	0.430618
H	0.324264	-0.813373	-1.771799
H	1.040676	-1.526124	1.11236
H	1.934377	-1.988117	-0.357736
H	1.449569	1.637754	1.176819
H	1.867712	1.843043	-0.537682
