19

C	-2.668605	-1.157177	-0.508723
C	-1.305162	-0.516038	-0.756372
C	-0.703151	0.11738	0.485195
O	-1.179906	-0.018968	1.589034
C	0.510561	1.049808	0.292177
O	0.056997	2.249096	-0.332898
C	1.618832	0.49577	-0.614914
C	2.149225	-0.777044	-0.146068
C	2.563544	-1.831262	0.255252
H	-3.40014	-0.411859	-0.184224
H	-3.043124	-1.632252	-1.419578
H	-2.604566	-1.912812	0.277737
H	-0.584966	-1.263618	-1.117232
H	-1.350757	0.252514	-1.537733
H	0.914318	1.247246	1.293027
H	-0.516464	2.707852	0.290476
H	1.225509	0.394375	-1.633051
H	2.413587	1.248658	-0.666702
H	2.938414	-2.759748	0.608907
