19

C	1.542786	1.95265	-0.16927
C	0.37213	1.063739	0.102552
C	-0.914749	1.281304	-0.181264
C	-1.796235	0.120336	0.196954
O	-2.143705	-0.576298	-1.006452
C	-0.877025	-0.709191	1.128669
C	0.563208	-0.311248	0.737763
C	1.157053	-1.231109	-0.323374
O	2.322023	-1.527359	-0.395748
H	2.026753	2.2582	0.766853
H	2.306549	1.425254	-0.752691
H	1.248084	2.853407	-0.713356
H	-1.302346	2.162654	-0.679479
H	-2.714704	0.437221	0.711122
H	-2.818276	-1.227284	-0.785457
H	-1.052771	-0.42855	2.171587
H	-1.074147	-1.782277	1.035859
H	1.259301	-0.285361	1.58206
H	0.412	-1.582895	-1.071078
