19
../xyz/dsC7O2H10nsd_1723.xyz
C          1.58586        0.82500        1.24337
C          0.58205        0.17841        0.28460
C         -0.39875       -0.74867        1.03645
O         -1.45376       -1.18988        0.20323
C         -2.29850       -0.13787       -0.22178
C         -1.54285        1.08183       -0.66602
C         -0.23698        1.22385       -0.44851
C          1.30777       -0.63965       -0.78833
O          2.48521       -0.56480       -1.03007
H          2.13787        0.06351        1.80338
H          2.31832        1.41389        0.68671
H          1.07475        1.47968        1.95532
H          0.10649       -1.65246        1.39184
H         -0.78982       -0.21015        1.91468
H         -2.89752       -0.54215       -1.04592
H         -3.00729        0.13653        0.58114
H         -2.11872        1.86088       -1.15845
H          0.29647        2.10578       -0.79344
H          0.63633       -1.31545       -1.35930
