19
../xyz/dsC7O2H10nsd_4140.xyz
C         -2.35322       -0.98328        0.14719
C         -1.14226       -0.37754       -0.53853
O         -1.19014        1.09539       -0.50689
C          0.07225        1.50592        0.12903
C          0.13659        0.54286        1.31053
C          0.23794       -0.46901        0.09897
O          1.29054       -1.42147        0.12276
C          2.21484       -0.31769       -0.19362
C          1.04332        0.60123       -0.66303
H         -2.38957       -0.73702        1.21083
H         -3.27073       -0.61272       -0.31916
H         -2.33392       -2.07339        0.04226
H         -1.10718       -0.70271       -1.58525
H          0.08009        2.59346        0.18383
H          1.05820        0.58290        1.88892
H         -0.73265        0.50608        1.96587
H          2.78792       -0.00982        0.68555
H          2.89633       -0.61141       -0.99513
H          0.95156        0.65830       -1.74788
