19
../xyz/dsC7O2H10nsd_5940.xyz
O          2.08010       -0.74494       -0.60165
C          1.31732       -1.46871        0.37165
C          0.46167       -0.48174        1.15972
C         -0.64435        0.16023        0.32445
C         -1.10630        1.57636        0.68197
C         -0.27746        1.37162       -0.54320
O          1.02664        1.83990       -0.52049
C         -1.62802       -0.74716       -0.19801
C         -2.44034       -1.52045       -0.63715
H          2.38467       -1.35523       -1.27822
H          0.67186       -2.20847       -0.11924
H          1.99354       -2.00149        1.05511
H          0.01736       -1.01277        2.00916
H          1.10980        0.30083        1.56377
H         -2.15988        1.80443        0.57346
H         -0.61090        2.04263        1.52641
H         -0.78428        1.42760       -1.50643
H          1.59384        1.09529       -0.78036
H         -3.16503       -2.19336       -1.02310
