19

O	2.22964	0.675894	-0.432483
C	1.404314	-0.480384	-0.436758
C	1.005508	-0.982332	0.984288
C	-0.495679	-0.708085	0.949073
C	-1.054279	-1.16559	-0.439069
C	-2.096821	-0.015615	-0.390665
C	-0.767095	0.579197	0.122542
O	-0.48289	1.853762	0.608191
C	0.016065	-0.181629	-1.003795
H	1.736536	1.366463	0.029175
H	1.95766	-1.230245	-1.0087
H	1.224453	-2.044333	1.135801
H	1.536722	-0.416759	1.755207
H	-1.09875	-0.888982	1.840439
H	-1.223576	-2.19119	-0.759845
H	-2.467305	0.349668	-1.353376
H	-2.90723	-0.117865	0.336708
H	-0.744812	2.499516	-0.057785
H	-0.059774	0.163106	-2.036976
