19

C	-2.058558	-1.401016	0.491084
C	-1.391658	-0.494874	-0.544552
C	-1.660355	1.067632	-0.286732
O	-0.433166	1.727019	0.142017
C	0.344746	0.621453	0.535523
C	1.832405	0.232759	0.664879
O	2.442999	-0.114689	-0.572986
C	1.488253	-1.039615	-0.029227
C	0.136562	-0.422773	-0.539633
H	-1.871946	-2.455124	0.261653
H	-1.69571	-1.208518	1.506001
H	-3.143181	-1.248961	0.497919
H	-1.778195	-0.757652	-1.533789
H	-2.000589	1.578032	-1.191614
H	-2.424677	1.186356	0.491879
H	-0.053813	0.229433	1.489441
H	2.49099	0.425345	1.504334
H	1.81854	-2.051643	0.168165
H	0.431556	0.022706	-1.494295
