19

C	-0.743343	2.04839	-0.604409
C	-0.742313	0.694727	0.049608
C	-0.325873	0.478195	1.465255
C	0.507175	-0.16517	0.348063
C	0.126137	-1.574894	-0.064398
C	-1.407754	-1.503007	-0.202178
O	-1.729182	-0.139959	-0.488631
C	1.865628	0.330909	0.074549
O	2.721372	-0.293606	-0.508314
H	0.038262	2.689269	-0.189947
H	-0.589366	1.956116	-1.683223
H	-1.708695	2.537494	-0.438967
H	0.133122	1.318966	1.977222
H	-0.897033	-0.179803	2.111052
H	0.615163	-1.802712	-1.015324
H	0.433653	-2.335769	0.658544
H	-1.804347	-2.113144	-1.017305
H	-1.902111	-1.819047	0.726524
H	2.065895	1.362252	0.448039
