19
../xyz/dsC7O2H10nsd_2160.xyz
C         -1.56981       -0.80312       -1.36045
C         -0.81966       -0.32261       -0.14923
C         -1.36969        0.31175        1.15577
C          0.16002        0.29312        1.37431
C          0.21705       -1.10695        0.71292
O          1.43179       -1.28291       -0.00722
C          1.59653       -0.00925       -0.63767
C          0.35044        0.72007       -0.12707
O          0.07960        2.00304       -0.58994
H         -0.89166       -1.27895       -2.07716
H         -2.33245       -1.53929       -1.08472
H         -2.07043        0.02848       -1.86750
H         -1.82510        1.29719        1.04801
H         -1.96875       -0.33647        1.80228
H          0.73206        0.63936        2.23613
H         -0.05387       -2.01166        1.25401
H          2.53644        0.46096       -0.31604
H          1.60962       -0.11128       -1.72997
H          0.78373        2.59262       -0.29915
