19
../xyz/dsC7O2H10nsd_2378.xyz
O          0.74351        1.90776       -0.30367
C          0.97248        0.58531        0.03044
C          2.22057        0.05981        0.74374
C          2.07351       -1.28366       -0.05009
C          0.84974       -0.71710       -0.77558
C         -0.19783       -0.32181        0.25610
C         -1.51876        0.12943       -0.27196
C         -2.69263        0.27359        0.59611
O         -2.56703       -0.84917       -0.27920
H          1.48009        2.21496       -0.84394
H          3.12288        0.60528        0.45034
H          2.17906        0.01640        1.83702
H          2.92284       -1.47694       -0.70875
H          1.88976       -2.17689        0.55534
H          0.57135       -0.89057       -1.80824
H         -0.26743       -0.89687        1.18019
H         -1.47539        0.74552       -1.16911
H         -2.60320        0.04970        1.65880
H         -3.47431        0.98726        0.33868
