19

C	0.959446	1.860198	-0.313808
C	0.458623	0.521971	0.145859
C	1.379245	-0.63071	0.436765
O	2.68624	-0.45259	-0.028562
C	0.305575	-0.826741	-0.607653
C	-1.010718	-1.089003	0.09346
O	-2.155291	-0.584119	-0.619927
C	-2.116966	0.667362	0.099916
C	-0.855022	0.259659	0.882454
H	0.235444	2.362346	-0.964129
H	1.149955	2.518056	0.543093
H	1.896645	1.74774	-0.862598
H	1.312361	-1.153813	1.395372
H	2.999512	-1.297123	-0.367924
H	0.553744	-1.074087	-1.633745
H	-1.20211	-2.073708	0.531163
H	-2.026095	1.532918	-0.567414
H	-3.011737	0.792453	0.722877
H	-0.876415	0.362465	1.969258
