19
../xyz/dsC7O2H10nsd_5724.xyz
C          3.13253       -0.69934       -0.14703
C          2.01019       -0.16337        0.74573
C          1.00682        0.67404       -0.02547
O          0.29732       -0.12792       -1.02743
C         -0.93318        0.05657       -0.33484
C         -1.32230        1.50876       -0.26334
C         -0.30014        0.99323        0.70291
C         -1.84665       -1.07935       -0.13275
O         -2.90929       -0.99894        0.43796
H          3.82399       -1.32510        0.42405
H          2.71783       -1.30119       -0.96030
H          3.70986        0.11798       -0.59278
H          1.47853       -0.99328        1.22677
H          2.42285        0.45932        1.55086
H          1.49821        1.53111       -0.50508
H         -1.02844        2.15090       -1.08867
H         -2.30710        1.68425        0.15613
H         -0.44328        0.98585        1.77548
H         -1.46028       -2.03826       -0.54195
