19

C	0.576489	1.97968	0.032761
C	0.460242	0.542096	-0.436748
C	1.824955	-0.231261	-0.363716
O	1.401006	-0.969457	0.840707
C	0.067907	-0.63432	0.497444
C	-0.560426	-1.365664	-0.754236
C	-0.868695	0.086455	-1.094362
O	-1.802371	0.420669	0.003147
C	-1.173328	-0.131177	1.206405
H	1.128264	2.045226	0.978001
H	1.122896	2.578595	-0.705445
H	-0.408599	2.427697	0.176224
H	2.082299	-0.910595	-1.180659
H	2.678774	0.410228	-0.134108
H	0.183283	-1.852206	-1.381685
H	-1.421624	-2.013709	-0.588537
H	-1.310506	0.457116	-2.018681
H	-0.98222	0.665402	1.931905
H	-1.824502	-0.892295	1.646865
