19

C	3.145114	0.104126	-0.103031
O	1.990011	-0.687676	0.055488
C	0.829655	-0.093886	-0.474869
C	-0.374657	-0.974343	-0.193481
C	-0.678492	-0.241659	1.105223
C	0.146956	0.947781	0.468483
C	-1.121277	1.376374	-0.325848
C	-1.592008	-0.055783	-0.085168
O	-2.835927	-0.595267	-0.334923
H	3.074583	1.061649	0.434744
H	3.984829	-0.463552	0.305008
H	3.346014	0.321961	-1.163908
H	1.014725	0.234726	-1.511475
H	-0.502471	-2.026692	-0.409881
H	-0.829458	-0.600511	2.111878
H	0.735572	1.679298	1.016899
H	-1.72621	2.097886	0.233957
H	-0.98535	1.727468	-1.35578
H	-3.476649	-0.144353	0.226188
