19
../xyz/dsC7O2H10nsd_4403.xyz
C         -2.83642       -0.73972        0.87467
C         -2.05261       -0.10434       -0.27356
O         -1.58716        1.19459        0.11738
C         -0.19068        1.31277       -0.10911
C          0.26108       -0.05078       -0.57464
C          1.70339       -0.36971       -0.83327
C          2.48041       -0.49660        0.47334
O          3.45034        0.15256        0.75969
C         -0.80307       -0.84342       -0.67110
H         -2.18806       -0.89372        1.74214
H         -3.66286       -0.08676        1.16872
H         -3.25295       -1.70564        0.56987
H         -2.72880        0.00721       -1.13909
H          0.01504        2.08621       -0.86862
H          0.31317        1.63493        0.81575
H          1.78136       -1.33204       -1.35516
H          2.19208        0.39862       -1.44137
H          2.06227       -1.25845        1.17026
H         -0.80924       -1.87670       -0.99707
