19
../xyz/dsC7O2H10nsd_4605.xyz
C          3.95505       -0.08311        0.50846
C          3.03692       -0.09737       -0.72761
C          1.61946        0.00242       -0.39772
C          0.45555        0.08048       -0.08876
C         -0.93670        0.19722        0.22864
O         -1.43388        1.51607        0.37584
C         -1.63845       -0.79740        1.13449
C         -1.97293       -0.77321       -0.33545
O         -3.17465       -0.23922       -0.77982
H          3.82559        0.84144        1.07729
H          3.72565       -0.92136        1.17169
H          5.00359       -0.15908        0.20545
H          3.30924        0.72828       -1.39782
H          3.20818       -1.01602       -1.30361
H         -1.08464        2.03175       -0.36083
H         -1.05047       -1.61582        1.53290
H         -2.37009       -0.36998        1.81232
H         -1.62945       -1.58816       -0.96330
H         -3.18284        0.67998       -0.47453
