19
../xyz/dsC7O2H10nsd_2625.xyz
C          0.53870        1.94147       -0.60321
C          0.28436        0.76204        0.35183
C          1.43915       -0.23947        0.25003
O          2.56053       -0.11033        0.64643
O          1.02721       -1.35656       -0.41248
C         -0.34145       -1.23241       -0.83093
C         -0.91964       -0.10282        0.00959
C         -1.99855       -0.39010        1.02238
C         -2.30885        0.41519       -0.21783
H         -0.26069        2.68299       -0.51984
H          1.48846        2.42380       -0.35819
H          0.58392        1.61099       -1.64600
H          0.24999        1.13538        1.37885
H         -0.35617       -1.00803       -1.90523
H         -0.83570       -2.19385       -0.66866
H         -2.38610       -1.40185        1.08634
H         -1.95677        0.13278        1.97230
H         -2.90759       -0.05074       -0.99461
H         -2.48354        1.48021       -0.10764
