19

O	3.105094	0.200274	-0.221787
C	2.276109	-0.599593	0.137001
C	0.868424	-0.265355	0.535994
C	0.46219	1.227026	0.494945
C	-0.60078	0.928923	-0.60021
C	-2.069262	0.878318	-0.153736
C	-2.182105	-0.504109	0.510001
O	-1.295524	-1.349307	-0.223331
C	-0.185128	-0.577343	-0.606952
H	2.506013	-1.690074	0.15064
H	0.616382	-0.815374	1.448197
H	0.066887	1.628498	1.43141
H	1.283803	1.860403	0.156373
H	-0.464357	1.476071	-1.533556
H	-2.339096	1.692715	0.524378
H	-2.728984	0.927762	-1.025271
H	-1.885641	-0.459055	1.56962
H	-3.179957	-0.945495	0.455769
H	0.231706	-1.010391	-1.518873
