19

O	-0.331886	2.127049	0.016257
C	-0.658048	0.96781	-0.025917
C	-2.087575	0.423523	0.031432
C	-1.918998	-1.090714	0.234169
C	-0.579514	-1.410645	-0.467217
C	0.312422	-0.210216	-0.144569
C	1.61125	0.035862	-0.938943
O	2.440172	-0.194529	0.217126
C	1.291588	-0.34032	1.064281
H	-2.676852	0.938523	0.793542
H	-2.556628	0.643457	-0.937146
H	-1.842327	-1.319857	1.303455
H	-2.752136	-1.6749	-0.162783
H	-0.145793	-2.363097	-0.15085
H	-0.733974	-1.469189	-1.55272
H	1.813193	-0.68314	-1.742489
H	1.711819	1.06044	-1.316293
H	1.267403	-1.31151	1.575457
H	1.222248	0.467318	1.803347
