19

C	3.551555	-0.345099	-0.053237
C	2.152021	0.044384	-0.476588
C	1.274298	0.718818	0.532024
O	0.059945	1.182921	-0.065125
C	-0.321369	-0.191546	-0.382874
C	-1.561168	-0.606504	0.405014
C	-2.77033	0.234031	0.049013
O	-3.846424	-0.216378	-0.252164
C	1.004387	-0.721801	0.15725
H	3.587	-0.600024	1.011672
H	3.90682	-1.216856	-0.612581
H	4.256273	0.475325	-0.222784
H	2.042511	0.364325	-1.511609
H	1.612247	1.199764	1.44338
H	-0.486953	-0.312026	-1.461446
H	-1.798031	-1.661029	0.230866
H	-1.350247	-0.46489	1.473842
H	-2.591826	1.329783	0.089194
H	1.137677	-1.640411	0.714171
