19
../xyz/dsC7O2H10nsd_3154.xyz
C          2.25674       -0.60476       -0.89535
C          1.09927       -0.08355       -0.07834
C          1.06505       -0.20348        1.42601
C          0.06310       -0.97299        0.60079
C         -1.34109       -0.41787        0.34122
O         -2.10213       -1.28836       -0.48689
C         -1.12260        0.92028       -0.37040
O         -0.36348        1.88875        0.35879
C          0.31722        1.09960       -0.62819
H          3.07931        0.11914       -0.93083
H          2.65063       -1.53164       -0.46779
H          1.95941       -0.81869       -1.92920
H          1.85295       -0.78763        1.89086
H          0.72821        0.65329        1.99540
H          0.14639       -2.05524        0.57827
H         -1.93050       -0.29886        1.25569
H         -1.57611       -1.47520       -1.27296
H         -1.92319        1.31127       -0.99488
H          0.71160        1.65710       -1.47424
