19

O	1.025368	-0.384804	1.418013
C	0.561634	-0.019228	0.133481
C	-0.2798	-1.15623	-0.497233
C	-1.699702	-1.165509	0.075432
C	-2.41866	0.145243	-0.262138
C	-1.551481	1.339211	0.032408
C	-0.23467	1.268827	0.223547
C	1.764413	0.22763	-0.768836
O	2.899043	0.087981	-0.381761
H	1.993022	-0.424258	1.344627
H	-0.327272	-1.022746	-1.587144
H	0.23673	-2.100198	-0.30112
H	-2.260123	-2.021743	-0.312743
H	-1.637809	-1.281019	1.163246
H	-2.713406	0.156684	-1.32279
H	-3.355506	0.226773	0.301888
H	-2.047807	2.303474	0.117404
H	0.33263	2.155982	0.493449
H	1.533845	0.541972	-1.806788
