19

C	-3.005479	-0.403157	0.414837
O	-1.868095	0.427433	0.567336
C	-0.995263	0.389448	-0.523511
O	-0.363033	-0.897843	-0.650388
C	1.036754	-0.721963	-0.593329
C	1.95234	-0.971142	0.668338
C	2.558524	0.468518	0.436061
C	1.280511	0.722407	-0.333591
C	0.128359	1.374294	-0.242791
H	-2.725484	-1.461982	0.366983
H	-3.642012	-0.235171	1.286341
H	-3.569344	-0.146775	-0.495192
H	-1.572105	0.557431	-1.449858
H	1.49609	-1.154823	-1.490533
H	1.355719	-1.005711	1.581017
H	2.642853	-1.816459	0.624859
H	2.752365	1.094397	1.307916
H	3.455528	0.427987	-0.188474
H	-0.07906	2.353955	0.165273
