19
../xyz/dsC7O2H10nsd_5898.xyz
C          2.51620       -1.91097        0.00580
O          1.44059       -1.00759       -0.12736
C          1.81959        0.33253        0.06443
C          0.63285        1.28315       -0.11220
O          0.78766        2.45903        0.11977
C         -0.69329        0.70491       -0.57331
C         -1.43641        0.00513        0.59667
C         -2.73025       -0.52257        0.18602
C         -3.79372       -0.94966       -0.17618
H          2.96140       -1.86576        1.01131
H          2.12086       -2.91465       -0.16417
H          3.30756       -1.70715       -0.73156
H          2.24209        0.49830        1.06863
H          2.59531        0.63774       -0.65903
H         -1.29914        1.52791       -0.95766
H         -0.52475       -0.02883       -1.36573
H         -0.80853       -0.80581        0.97974
H         -1.57467        0.72208        1.41538
H         -4.73586       -1.33042       -0.48360
