19

O	-2.662084	0.3815	0.708182
C	-1.792379	0.0088	-0.323873
C	-0.974486	-1.344953	-0.25289
C	0.243849	-0.596243	-0.883425
C	1.649541	-0.460557	-0.228122
O	1.742893	-1.074493	1.046047
C	1.814902	1.092735	-0.121255
C	0.378293	1.58496	0.048961
C	-0.445589	0.67982	-0.476449
H	-2.138963	0.467245	1.512922
H	-2.3861	0.039242	-1.243544
H	-0.775101	-1.631167	0.783465
H	-1.387424	-2.199437	-0.792786
H	0.317765	-0.761876	-1.96329
H	2.439127	-0.924999	-0.824765
H	1.173914	-0.580282	1.647292
H	2.468058	1.349175	0.720078
H	2.286105	1.503743	-1.024546
H	0.111357	2.49493	0.573662
