19

C	2.028646	-0.414289	1.177909
C	1.165449	-0.237657	-0.065205
O	1.943322	-0.044033	-1.233854
C	0.054769	-1.314581	-0.298396
C	-1.024879	-0.244511	-0.049637
C	-2.286222	-0.317267	0.789496
C	-2.38777	-0.05925	-0.67842
C	0.024952	0.81314	0.078157
O	0.022175	2.010204	0.18285
H	1.41828	-0.612249	2.065037
H	2.72084	-1.249663	1.034148
H	2.61113	0.493873	1.367926
H	2.333341	0.836469	-1.176098
H	0.078817	-1.698174	-1.319973
H	0.070127	-2.146653	0.409016
H	-2.565279	-1.297041	1.162958
H	-2.466745	0.504799	1.474084
H	-2.741564	-0.858177	-1.321293
H	-2.632592	0.943941	-1.0112
