19

C	2.412906	-1.332443	0.033243
C	1.100384	-0.622351	-0.017515
C	-0.141356	-1.120031	-0.047864
C	-1.235191	-0.071796	-0.04514
C	-2.056413	-0.130893	1.251764
O	-2.074964	-0.353566	-1.166626
C	-0.446319	1.253398	-0.192766
C	1.027048	0.86587	-0.02913
O	1.963944	1.623274	0.074443
H	3.012601	-1.095438	-0.852419
H	2.995771	-0.993902	0.896523
H	2.288269	-2.416211	0.091705
H	-0.40321	-2.173576	-0.058204
H	-2.84616	0.630368	1.236981
H	-2.52715	-1.112238	1.360711
H	-1.428816	0.056031	2.128119
H	-2.852109	0.212125	-1.102996
H	-0.593878	1.65226	-1.201072
H	-0.723506	2.032384	0.52256
