19
../xyz/dsC7O2H10nsd_4536.xyz
C         -0.07952        1.93729       -0.19431
C         -0.78146        0.78392        0.52344
O         -2.11913        0.65528        0.03211
C         -2.37511       -0.68091       -0.38550
C         -1.07345       -1.40398       -0.20180
C         -0.16297       -0.58552        0.31995
C          1.26312       -0.88939        0.67971
C          2.23425       -0.45966       -0.41490
O          3.15340        0.29863       -0.25662
H         -0.00238        1.73288       -1.26670
H         -0.65607        2.85652       -0.06042
H          0.92613        2.09955        0.20551
H         -0.81881        1.01719        1.60255
H         -3.18132       -1.12364        0.22258
H         -2.72356       -0.68426       -1.42999
H         -0.93713       -2.45146       -0.44323
H          1.56367       -0.39798        1.61030
H          1.38545       -1.97335        0.80353
H          2.02068       -0.91725       -1.40756
