19

C	-2.049811	1.215315	-0.609864
C	-1.158807	-0.019311	-0.704828
C	-1.653177	-1.249814	0.113507
C	-0.661392	-0.873131	1.24887
C	0.078153	0.034719	0.243155
O	0.631456	1.300245	0.66016
C	1.952203	1.012534	0.153629
C	1.448921	-0.36468	-0.298485
O	1.911906	-1.325198	-0.835424
H	-1.537566	2.10081	-0.99643
H	-2.966083	1.064897	-1.190094
H	-2.336802	1.427917	0.425055
H	-0.909724	-0.224143	-1.750574
H	-2.714211	-1.261811	0.372593
H	-1.393628	-2.19707	-0.363455
H	-1.125115	-0.264631	2.029401
H	-0.08122	-1.672009	1.715888
H	2.261326	1.688438	-0.653423
H	2.719579	1.003442	0.937251
