19
../xyz/dsC7O2H10nsd_1436.xyz
C          1.81993        1.27416       -0.72568
C          1.44659       -0.06291       -0.12172
C          2.54855       -1.10961       -0.14580
C          0.53926       -0.16508        1.06893
O         -0.43601        0.88477        1.09294
C         -1.02466        0.39890       -0.14155
C         -2.39641       -0.19497        0.11846
O         -3.21993       -0.36525       -0.74125
C          0.05711       -0.67829       -0.27625
H          1.96003        1.19284       -1.80921
H          1.05916        2.03137       -0.52742
H          2.76097        1.63379       -0.29478
H          3.44042       -0.74377        0.37426
H          2.23494       -2.04047        0.33840
H          2.83522       -1.35111       -1.17518
H          0.77509       -0.65123        2.00938
H         -1.08866        1.16284       -0.92373
H         -2.56507       -0.48092        1.18043
H         -0.10682       -1.68271       -0.64401
