19
../xyz/dsC7O2H10nsd_1188.xyz
C          0.18307        0.30241        1.80715
C          0.49375        0.04821        0.33955
C          1.14651       -1.30329       -0.04160
O          2.20922       -0.63601       -0.75141
C          1.80693        0.64509       -0.22209
C         -0.69423        0.38498       -0.59110
O         -1.02315        1.77065       -0.54242
C         -1.85995       -0.46271       -0.32395
C         -2.82228       -1.13805       -0.07075
H         -0.04987        1.35899        1.97906
H         -0.67085       -0.29542        2.14168
H          1.04220        0.04999        2.43547
H          1.52087       -1.87653        0.81762
H          0.56644       -1.97050       -0.68993
H          2.50069        1.00420        0.55027
H          1.70750        1.40953       -0.99998
H         -0.36206        0.20891       -1.62193
H         -1.59167        1.91228        0.22175
H         -3.67469       -1.73836        0.13340
