19
../xyz/dsC7O2H10nsd_1337.xyz
O          1.72265        1.71143        0.25306
C          1.25997        0.39457        0.47680
C          1.99487       -0.49514       -0.52870
O          2.14895       -1.67980       -0.39698
C         -0.21425        0.21596        0.23173
C         -1.01620        1.06011       -0.42377
C         -2.44631        0.57715       -0.45252
C         -2.32911       -0.89900        0.01283
C         -0.96313       -0.99743        0.73905
H          1.11641        2.31166        0.69970
H          1.51468        0.03104        1.48540
H          2.34154        0.06633       -1.42371
H         -0.69948        1.99920       -0.86340
H         -3.07127        1.17544        0.22609
H         -2.90317        0.66871       -1.44426
H         -3.16521       -1.21270        0.64224
H         -2.32086       -1.55442       -0.86323
H         -1.06962       -0.94516        1.83231
H         -0.43081       -1.93056        0.52772
