19

C	2.551597	-0.91353	0.108864
C	1.284734	-0.18823	-0.330224
C	1.131726	1.179911	0.345772
C	0.037983	2.012247	-0.272676
C	-1.234381	1.630644	-0.22633
C	-1.678618	0.385113	0.500671
C	-1.119789	-0.948499	0.006937
O	-1.838509	-1.889441	-0.198349
O	0.219298	-1.138857	-0.083281
H	2.562469	-1.047373	1.19517
H	2.601791	-1.899324	-0.358679
H	3.437461	-0.341092	-0.181348
H	1.31077	-0.032901	-1.416706
H	0.956691	1.02773	1.420554
H	2.094668	1.692315	0.259361
H	0.318304	2.924382	-0.791096
H	-2.008246	2.225637	-0.701363
H	-1.39795	0.460513	1.562208
H	-2.761782	0.270562	0.466852
