19
../xyz/dsC7O2H10nsd_2864.xyz
C          2.51648        0.04591       -0.52719
C          1.11067       -0.21572       -0.09555
C          0.47077       -0.90104        1.05985
O         -0.41883        0.17124        1.39972
C         -0.18607        0.67916        0.03909
C         -0.36201        2.15748       -0.09983
C         -0.95588       -0.37909       -0.80651
O         -2.29702       -0.59841       -0.48172
C          0.12567       -1.36409       -0.35971
H          2.98123        0.83513        0.07417
H          3.12591       -0.85746       -0.41840
H          2.56631        0.35051       -1.57859
H          0.86059       -1.53081        1.84879
H         -0.13076        2.47581       -1.12105
H         -1.40150        2.42792        0.11402
H          0.28635        2.70019        0.59383
H         -0.89294       -0.16708       -1.87709
H         -2.32361       -0.59156        0.48544
H          0.33741       -2.36086       -0.72590
