19
../xyz/dsC7O2H10nsd_0826.xyz
O         -3.43661       -1.06284        0.04429
C         -2.60327       -0.29820       -0.37337
C         -1.47192        0.23845        0.41304
C         -0.96264        1.63683        0.09452
C         -0.14237        0.45977       -0.30791
C          1.12661        0.11614        0.41674
C          1.75326       -1.27882        0.18344
C          2.99511       -0.48608       -0.26724
O          2.28434        0.76692       -0.16087
H         -2.63228        0.06885       -1.42830
H         -1.43877       -0.09282        1.44553
H         -1.47603        2.19431       -0.68175
H         -0.63522        2.23388        0.93825
H         -0.13118        0.21501       -1.36750
H          1.02529        0.37881        1.48058
H          1.86709       -1.91164        1.06417
H          1.26826       -1.85074       -0.61017
H          3.84732       -0.52981        0.42276
H          3.35489       -0.66710       -1.28621
