19

O	-0.606388	1.877032	-0.545295
C	-0.612261	0.604028	0.013131
C	-1.937667	0.02068	0.540766
O	-1.698146	-1.249596	-0.097254
C	-0.46931	-0.800188	-0.701505
C	0.752127	-1.118623	0.169929
C	2.088359	-0.631362	-0.450417
C	1.952164	0.730842	0.291616
C	0.601063	0.280938	0.901972
H	-1.371637	1.96694	-1.123712
H	-2.051581	-0.062736	1.628829
H	-2.828698	0.519062	0.127793
H	-0.428326	-0.996867	-1.777635
H	0.734951	-2.080901	0.681359
H	2.954098	-1.219497	-0.138358
H	2.094224	-0.580639	-1.543815
H	2.724566	0.883838	1.048546
H	1.897468	1.624126	-0.332992
H	0.464359	0.409287	1.977425
