19

C	-1.240367	-0.632712	-1.000311
C	-1.381803	0.689697	-0.202625
C	-1.335562	-0.159079	1.101594
C	-0.641329	-1.286399	0.275649
C	0.876178	-1.184117	0.351063
O	1.602722	-0.737597	-0.807732
C	1.579452	0.105656	0.341613
C	0.902597	1.464961	0.271505
O	-0.30379	1.582151	-0.445012
H	-2.214318	-1.06409	-1.246624
H	-0.608147	-0.590069	-1.886363
H	-2.286171	1.279362	-0.373881
H	-0.814542	0.237307	1.97594
H	-2.350174	-0.437891	1.397862
H	-0.950797	-2.311529	0.491187
H	1.366335	-2.006897	0.872607
H	2.534856	0.167852	0.871146
H	0.790949	1.815967	1.312059
H	1.585551	2.165522	-0.222914
