19

O	-2.67704	0.630948	-0.147887
C	-1.478575	0.07672	-0.591695
C	-0.882061	-1.25053	0.039668
C	-0.46094	-0.401245	1.263626
C	-0.088602	0.467247	0.014281
C	1.065519	1.430194	-0.023805
O	2.211935	0.56442	0.114223
C	1.886842	-0.825971	-0.150643
C	0.448964	-0.822634	-0.65555
H	-2.692126	0.640342	0.814574
H	-1.528808	0.088047	-1.68328
H	-1.35018	-2.235848	0.040429
H	-1.251093	-0.0239	1.920407
H	0.359325	-0.777318	1.873989
H	1.109548	1.978768	-0.976055
H	1.092808	2.151719	0.799025
H	2.580796	-1.199512	-0.910869
H	2.049869	-1.405222	0.765181
H	0.403814	-0.822697	-1.74938
