19

C	-1.730538	1.313205	0.3654
C	-0.954878	0.041671	0.068566
O	-1.899905	-0.919926	-0.386135
C	-0.108834	-0.531079	1.257971
C	1.267161	-0.765361	0.558389
O	0.856927	-1.076585	-0.787106
C	0.169004	0.168068	-1.022869
C	1.205738	1.194752	-0.595371
C	1.90117	0.612118	0.380229
H	-2.490208	1.120591	1.12856
H	-1.066332	2.102008	0.72725
H	-2.243665	1.665545	-0.534962
H	-1.381411	-1.682327	-0.673173
H	-0.035001	0.145994	2.111319
H	-0.558542	-1.467802	1.594005
H	1.888863	-1.562999	0.962548
H	-0.216733	0.214425	-2.040684
H	1.278246	2.205727	-0.971081
H	2.675656	1.030695	1.008248
