19

C	-2.85078	-0.412307	-0.378233
C	-1.794709	-0.165393	0.708721
C	-0.445806	0.157829	0.134019
O	-0.261999	1.437113	-0.490977
C	0.570728	1.092965	0.619231
C	1.856165	0.31829	0.203188
C	1.518867	-1.110769	0.717631
C	0.514324	-0.929362	-0.457556
O	1.522007	-0.135243	-1.134194
H	-3.826238	-0.627086	0.067533
H	-2.952413	0.468654	-1.018239
H	-2.58034	-1.260412	-1.015798
H	-2.112647	0.662897	1.351135
H	-1.704237	-1.050463	1.352129
H	0.505235	1.708274	1.510336
H	2.832739	0.791942	0.292595
H	2.303126	-1.835712	0.494211
H	1.132686	-1.231008	1.734444
H	0.109287	-1.749567	-1.048983
