19
../xyz/dsC7O2H10nsd_5034.xyz
C         -2.62256       -0.05778       -0.47955
C         -1.70215       -0.39910        0.69998
C         -0.24662       -0.26664        0.35310
C          0.95281       -0.37566        1.34683
C          1.76696        0.23204        0.15190
C          1.55547       -0.86952       -0.89781
O          0.14975       -1.17495       -0.69916
C          0.46861        1.03849       -0.09193
O          0.17513        2.17103       -0.32860
H         -2.46740        0.97511       -0.80427
H         -2.42066       -0.71537       -1.32864
H         -3.67252       -0.17283       -0.19618
H         -1.91029        0.26540        1.54657
H         -1.88886       -1.42324        1.04561
H          0.87643        0.29182        2.20717
H          1.21595       -1.39256        1.64587
H          2.74962        0.68578        0.25056
H          1.72641       -0.52621       -1.92455
H          2.15717       -1.76738       -0.71524
