19

O	0.436961	2.073077	0.635761
C	0.395117	1.090565	-0.364788
C	-0.957968	0.574267	-0.923045
C	-1.930867	0.100242	0.182113
C	-1.107163	-1.198644	0.357327
C	0.20552	-0.987859	1.156525
C	0.86685	-0.352901	-0.085446
O	2.228982	-0.535665	-0.306852
C	-0.34238	-0.871576	-0.977788
H	-0.134759	1.794424	1.358468
H	1.004225	1.470987	-1.190937
H	-1.375707	1.110543	-1.77457
H	-2.075828	0.742312	1.060907
H	-2.916278	-0.115985	-0.239531
H	-1.653083	-2.123737	0.541369
H	0.174704	-0.406397	2.086032
H	0.677406	-1.952964	1.377271
H	2.464302	-1.437192	-0.063004
H	-0.267175	-1.505859	-1.856666
