19
../xyz/dsC7O2H10nsd_0674.xyz
O         -2.67178       -0.29806       -0.71332
C         -1.63641       -0.10164       -0.14655
C         -1.04189        1.22803        0.30104
C          0.39688        0.90982        0.72317
C          1.49089        1.19917       -0.34387
C          1.80343       -0.15824       -1.00559
C          1.62331       -1.15972        0.14596
C          0.38721       -0.64345        0.88178
O         -0.79886       -1.11167        0.20834
H         -1.12569        1.95928       -0.50583
H         -1.64948        1.59946        1.13293
H          0.64483        1.39747        1.66731
H          1.17722        1.96218       -1.06180
H          2.38950        1.58047        0.15288
H          1.08111       -0.37526       -1.80012
H          2.79955       -0.19277       -1.45359
H          1.49922       -2.19691       -0.17374
H          2.48242       -1.11644        0.82659
H          0.32595       -0.98341        1.91956
