19
../xyz/dsC7O2H10nsd_1056.xyz
C         -4.57414       -0.77220       -0.28885
C         -3.28551       -0.16364        0.01023
C         -2.22428        0.34449        0.26511
C         -0.92448        0.94041        0.55217
C          0.22156        0.28812       -0.24766
C          1.55916        0.95265        0.05741
O          2.61760        0.39556       -0.75343
C          3.22682       -0.69612       -0.27120
O          2.98053       -1.25280        0.76372
H         -5.03706       -1.18924        0.61240
H         -5.27258       -0.04129       -0.71138
H         -4.47078       -1.58726       -1.01380
H         -0.95630        2.01669        0.33240
H         -0.70960        0.85874        1.62624
H          0.28085       -0.77526        0.00095
H          0.01199        0.36449       -1.31940
H          1.54325        2.01494       -0.20015
H          1.82383        0.83852        1.11192
H          4.00662       -1.00477       -0.98465
