19

C	2.534538	-0.63446	0.138688
O	1.351683	-0.802811	-0.621695
C	0.244145	-0.065532	-0.152304
C	-0.369821	-0.560201	1.199567
C	-1.60268	-1.065188	0.435363
C	-2.260403	0.062977	-0.301791
C	-1.021715	-0.563907	-0.885104
C	0.484063	1.42225	-0.333855
O	0.035526	2.287879	0.375462
H	2.413634	-0.985572	1.172662
H	3.309078	-1.231167	-0.347551
H	2.864394	0.414391	0.168934
H	0.233106	-1.369916	1.614036
H	-0.544467	0.203113	1.961662
H	-2.113023	-2.00029	0.628387
H	-3.177375	-0.191823	-0.823128
H	-2.233806	1.073669	0.095515
H	-0.983318	-1.028923	-1.861718
H	1.085338	1.660342	-1.242317
