19

C	2.493361	-0.544462	-0.060515
O	1.295858	-0.626289	-0.825327
C	0.155462	-0.260055	-0.12398
C	-0.382829	-1.225643	0.986341
C	-1.764834	-1.281608	0.268201
C	-1.271805	-0.272819	-0.798384
C	-1.478828	1.219863	-0.414075
C	-0.062457	1.23503	0.195979
O	0.642854	2.100343	0.632433
H	2.461588	-1.216098	0.809406
H	3.305758	-0.859331	-0.718767
H	2.67617	0.477963	0.286987
H	0.153861	-2.176627	0.958393
H	-0.371501	-0.846137	2.010617
H	-1.991602	-2.269446	-0.137956
H	-2.624042	-0.950008	0.856925
H	-1.400495	-0.521999	-1.849997
H	-1.550165	1.900451	-1.268741
H	-2.297693	1.446973	0.27488
