19
../xyz/dsC7O2H10nsd_3345.xyz
C         -0.06516        2.32341       -0.19453
C         -0.68612        0.98534       -0.53289
C         -1.54808        0.31970        0.52737
C         -2.19977       -0.94549       -0.04856
C         -0.77555       -1.51990       -0.37083
C         -0.17759       -0.22998        0.17965
O          0.97650       -0.18727        0.98809
C          2.14629       -0.38414        0.34890
O          2.28634       -0.59501       -0.82226
H          0.19647        2.38622        0.86564
H          0.84964        2.48676       -0.77395
H         -0.75753        3.14067       -0.42026
H         -0.97929        0.87277       -1.57703
H         -1.87166        0.86521        1.40558
H         -2.73019       -1.54164        0.69641
H         -2.85926       -0.78292       -0.90651
H         -0.53702       -2.38474        0.25223
H         -0.53772       -1.75078       -1.41212
H          2.95970       -0.32697        1.08875
