19
../xyz/dsC7O2H10nsd_6094.xyz
C          4.03801        0.26380       -0.01563
O          2.71218        0.40733       -0.46496
C          1.78159       -0.27927        0.33953
C          0.39287       -0.07235       -0.25202
C         -0.69325       -0.78986        0.56792
C         -2.08645       -0.56912        0.00589
O         -2.76932       -1.46250       -0.44463
C         -2.56961        0.80509        0.03630
C         -2.96808        1.94059        0.07204
H          4.35759       -0.79057       -0.01403
H          4.67832        0.82530       -0.70012
H          4.17094        0.66237        1.00297
H          2.02600       -1.35541        0.38132
H          1.81512        0.09679        1.37789
H          0.18419        1.00147       -0.29621
H          0.38930       -0.44302       -1.28286
H         -0.52429       -1.87034        0.58839
H         -0.67693       -0.41721        1.60092
H         -3.33360        2.93867        0.09433
