19

C	2.415122	0.145314	0.299844
C	0.933165	0.038661	-0.001321
C	0.285442	1.394069	-0.370385
O	-1.107357	1.255408	-0.624159
C	-1.805692	0.483973	0.344913
C	-1.03498	-0.811786	0.65952
O	0.231344	-0.39445	1.181705
C	-0.647233	-1.526838	-0.627201
C	0.513011	-1.016319	-1.023189
H	2.798136	-0.821085	0.638033
H	2.971592	0.44957	-0.592174
H	2.596356	0.881858	1.088449
H	0.463227	2.090858	0.46436
H	0.714696	1.819085	-1.283609
H	-1.927128	1.047595	1.283285
H	-2.794784	0.285522	-0.080411
H	-1.550596	-1.418721	1.409372
H	-1.272253	-2.242894	-1.144175
H	1.055847	-1.2219	-1.936587
