19

C	-2.628861	0.733767	0.03109
C	-1.490656	-0.175608	0.466881
O	-1.120381	-1.086863	-0.603199
C	0.269482	-0.847836	-0.740821
C	0.478991	0.701984	-0.694593
C	1.969145	0.846686	-0.416108
O	2.163965	-0.193123	0.569116
C	0.856576	-0.725869	0.695679
C	-0.137564	0.481098	0.735697
H	-2.332494	1.376155	-0.802772
H	-3.484707	0.132702	-0.289786
H	-2.950616	1.369183	0.863162
H	-1.8153	-0.77198	1.331501
H	0.703286	-1.486884	-1.509081
H	0.023282	1.360747	-1.432551
H	2.597152	0.653313	-1.294497
H	2.246923	1.820068	0.006685
H	0.835398	-1.54027	1.418691
H	-0.074276	1.241514	1.514354
