19

C	-2.905972	-0.576387	-0.420671
C	-1.504393	-0.247782	0.005935
C	-0.496982	-1.122686	-0.021164
C	0.878233	-0.738613	0.476576
O	1.864447	-1.665414	0.121386
C	1.214724	0.647594	-0.076847
O	2.297679	0.843718	-0.583401
C	0.120083	1.694574	-0.002253
C	-1.223149	1.151135	0.523679
H	-3.615927	-0.420087	0.402095
H	-3.233867	0.075447	-1.24075
H	-2.994	-1.614177	-0.75198
H	-0.610608	-2.142824	-0.373895
H	0.842444	-0.627838	1.580318
H	2.570169	-1.136828	-0.286166
H	0.485122	2.530421	0.605301
H	0.003208	2.08871	-1.017881
H	-1.211385	1.135096	1.623054
H	-2.027424	1.838634	0.244494
