19

O	-2.336296	-1.091907	-0.076213
C	-1.676108	0.117363	-0.316926
C	-0.900157	0.875739	0.801546
C	-0.138937	1.561878	-0.368404
C	-0.292263	0.17088	-1.045195
C	0.571839	-0.740566	-0.120859
C	0.123973	-0.181227	1.265167
C	2.041771	-0.605833	-0.431168
O	2.834255	0.037035	0.212083
H	-1.816068	-1.619635	0.537872
H	-2.399093	0.763513	-0.820377
H	-1.414165	1.447015	1.574249
H	-0.727465	2.334927	-0.866421
H	0.871749	1.92088	-0.168266
H	-0.197076	0.023707	-2.121187
H	0.296959	-1.790991	-0.281093
H	-0.31171	-0.951969	1.910579
H	0.968432	0.259864	1.798431
H	2.364056	-1.137748	-1.355721
