19
../xyz/dsC7O2H10nsd_4113.xyz
O          2.45477       -1.22420        0.42940
C          1.91038       -0.13694       -0.26921
C          1.48115        1.17730        0.50892
C          0.17568        1.20318       -0.35837
C         -1.27196        1.18985        0.17245
C         -1.85816       -0.17318       -0.33446
O         -2.80405       -0.75001        0.55186
C         -0.61097       -1.03534       -0.54057
C          0.45674       -0.25188       -0.62905
H          3.40707       -1.10201        0.48979
H          2.52919        0.13769       -1.13699
H          1.27092        0.92786        1.55205
H          2.15642        2.03537        0.45375
H          0.29615        1.85966       -1.22691
H         -1.27698        1.16295        1.26926
H         -1.87450        2.04813       -0.13694
H         -2.42169       -0.03478       -1.26618
H         -2.33818       -0.96166        1.36920
H         -0.65120       -2.11748       -0.51542
