19

O	2.136989	-1.201447	0.129353
C	1.225849	-0.419017	-0.605772
C	1.378581	1.142466	-0.365175
C	0.037287	1.399707	0.382021
O	-0.036769	0.201263	1.215673
C	-0.211557	-0.483875	-0.096219
C	-1.480893	-1.325221	-0.044895
C	-2.272667	0.035019	-0.087483
C	-0.974569	0.768331	-0.582426
H	1.94056	-1.015974	1.057338
H	1.335663	-0.704575	-1.65429
H	2.245341	1.339972	0.26933
H	1.477299	1.717125	-1.290357
H	-0.084797	2.336112	0.93052
H	-1.624418	-1.910309	-0.957833
H	-1.606988	-1.969455	0.827311
H	-3.096644	0.06811	-0.801931
H	-2.628752	0.360908	0.889115
H	-0.971203	1.075098	-1.629728
