19
../xyz/dsC7O2H10nsd_3353.xyz
C          2.63510       -0.05352       -0.07793
C          1.16100        0.01727        0.14040
C          0.45884        0.02667        1.28655
C         -1.01718       -0.06796        0.93452
C         -1.21414       -1.46941        0.29704
O         -0.45419       -1.40350       -0.92293
C          0.11605       -0.07026       -0.96945
C         -1.03398        0.77661       -0.37782
O         -0.81882        2.15369       -0.24036
H          2.90530       -0.98989       -0.58202
H          2.98633        0.76093       -0.72347
H          3.18666       -0.00524        0.86535
H          0.85998       -0.02192        2.29235
H         -1.73803        0.19588        1.70735
H         -0.83802       -2.28176        0.92949
H         -2.26746       -1.66372        0.05862
H          0.43805        0.12903       -1.99086
H         -1.95575        0.66056       -0.95342
H         -0.02716        2.25826        0.30321
