19

O	-1.374829	1.838813	-0.014738
C	-1.06851	0.479526	-0.291913
C	-2.175795	-0.420792	0.244246
O	-2.475078	-1.49384	-0.21199
C	0.258325	0.156651	0.416562
C	1.418132	1.094286	-0.019813
C	2.683941	0.200323	-0.043644
C	2.113792	-1.194754	-0.132458
C	0.806006	-1.223158	0.115504
H	-2.113621	2.106707	-0.570419
H	-0.95537	0.291336	-1.369387
H	-2.693748	0.01244	1.132263
H	0.07305	0.261458	1.497254
H	1.212279	1.46746	-1.02828
H	1.515823	1.965917	0.629088
H	3.352617	0.444145	-0.876907
H	3.282357	0.315131	0.871267
H	2.725904	-2.066303	-0.337736
H	0.184633	-2.110577	0.135771
