19
../xyz/dsC7O2H10nsd_5046.xyz
C         -2.93585       -0.26138        0.07390
C         -1.74074        0.50077       -0.51651
C         -0.41420        0.01779       -0.00111
C          0.19091        0.42335        1.33601
C          0.95556        0.69376        0.08250
O          1.37270        1.96951       -0.24113
C          1.61606       -0.61662       -0.47647
O          1.30805       -1.71697        0.39210
C          0.31248       -1.26447       -0.54155
H         -3.88113        0.10705       -0.33686
H         -2.87044       -1.33231       -0.14605
H         -2.96968       -0.14960        1.16204
H         -1.76283        0.41749       -1.61244
H         -1.83757        1.57031       -0.29254
H         -0.26223        1.31769        1.75405
H          0.52483       -0.31415        2.05533
H          1.30055        2.08582       -1.19540
H          2.49980       -0.68912       -1.10131
H         -0.09271       -1.99266       -1.23513
