19

C	1.490419	-1.007609	-1.089438
C	0.767421	-0.33916	0.069108
O	1.697691	-0.006814	1.103307
C	-0.453738	-1.015228	0.767649
C	-1.493886	-1.262517	-0.358097
C	-1.583012	0.260621	-0.453406
C	-1.077784	0.424592	0.971809
C	-0.19037	0.829694	-0.178043
O	0.141027	2.092049	-0.626591
H	2.020029	-1.902785	-0.748152
H	0.808855	-1.285517	-1.896087
H	2.228781	-0.318152	-1.518573
H	2.456016	0.413318	0.684332
H	-0.2581	-1.742876	1.551876
H	-1.187195	-1.847424	-1.231804
H	-2.42007	-1.680883	0.046531
H	-2.316409	0.871104	-0.965335
H	-1.46758	0.959454	1.824104
H	0.671634	2.509532	0.061893
