19

C	0.612023	2.291288	0.089621
C	0.320971	0.9027	-0.471547
C	1.511148	-0.084369	-0.550458
C	1.694765	-0.604039	0.890921
C	0.339295	-1.227894	0.504203
O	0.825361	-1.338226	-0.867969
C	-0.616372	-0.001109	0.418361
C	-1.923269	-0.329838	-0.253241
O	-3.009944	-0.028883	0.174414
H	1.312482	2.833926	-0.554474
H	-0.305361	2.884345	0.154661
H	1.04655	2.244502	1.093227
H	-0.0984	1.000483	-1.478801
H	2.339299	0.154071	-1.217856
H	2.479577	-1.358154	0.951643
H	1.747472	0.100366	1.723872
H	-0.040879	-2.159136	0.923842
H	-0.825067	0.441975	1.395612
H	-1.810371	-0.885953	-1.210436
