19

C	-1.081614	1.893227	0.157986
C	-1.349231	0.429222	-0.202839
C	-2.845313	0.102112	-0.104441
O	-3.152671	-1.239477	-0.452198
C	-0.544377	-0.548897	0.685864
C	0.89373	-0.474155	0.493939
C	2.084472	-0.394036	0.29975
C	3.508824	-0.327004	0.112385
O	4.057166	0.230639	-0.811685
H	-1.6302	2.569943	-0.504789
H	-1.393859	2.106795	1.187181
H	-0.01733	2.128885	0.074166
H	-1.036346	0.262806	-1.243496
H	-3.184905	0.223682	0.931301
H	-3.416155	0.815227	-0.718128
H	-2.984054	-1.34753	-1.393971
H	-0.78014	-0.361354	1.743086
H	-0.885698	-1.569943	0.476846
H	4.093785	-0.84062	0.902995
