19

C	-1.463517	1.777969	0.250319
C	-1.009911	0.359735	0.116052
C	-1.407425	-0.920964	0.898867
C	-0.572867	-1.343626	-0.331121
O	-1.332859	-0.370115	-1.145439
C	0.429267	-0.217535	0.000178
C	1.542159	-0.212094	1.061759
C	2.416595	0.319224	-0.090023
O	1.300367	0.284279	-1.00801
H	-1.192579	2.172269	1.235124
H	-0.987424	2.39515	-0.517221
H	-2.549103	1.849301	0.136088
H	-0.997165	-1.077153	1.900635
H	-2.464519	-1.176376	0.824315
H	-0.403046	-2.333215	-0.755228
H	1.390211	0.478039	1.893976
H	1.820682	-1.191963	1.453634
H	2.808047	1.335068	0.034753
H	3.229018	-0.340688	-0.414665
