19
../xyz/dsC7O2H10nsd_3872.xyz
C         -2.68239       -0.71014        0.33035
C         -1.55162       -0.09262       -0.47431
O         -0.39119       -0.97308       -0.51211
C          0.65797       -0.10679       -0.06099
C          0.03940        0.58893        1.18844
C         -0.88594        1.18257        0.08164
C          0.39032        1.22526       -0.81573
C          1.98135       -0.80777       -0.03413
O          3.02035       -0.24235        0.19835
H         -2.41462       -0.83860        1.38235
H         -3.57493       -0.07780        0.27352
H         -2.93692       -1.69314       -0.07645
H         -1.89169        0.07071       -1.50582
H         -0.38646       -0.06303        1.95266
H          0.70717        1.32949        1.62824
H         -1.52286        2.05090        0.24607
H          0.26688        1.15495       -1.89905
H          1.09304        2.01235       -0.54380
H          1.93261       -1.89902       -0.23936
