19
../xyz/dsC7O2H10nsd_3002.xyz
C         -0.05651        2.12466        0.22374
C          0.01536        0.62251        0.19355
C         -0.43218       -0.31691        1.37472
C         -0.49879       -1.40385        0.26383
C          0.98643       -1.54573       -0.11635
C          1.33279       -0.04114       -0.17052
O          2.37740        0.47887       -0.46163
C         -0.94978       -0.27213       -0.70586
O         -2.30137        0.09684       -0.71509
H          0.47146        2.52816        1.09362
H          0.41286        2.54798       -0.66966
H         -1.09620        2.46426        0.26080
H          0.26769       -0.46593        2.20217
H         -1.40420       -0.03465        1.78798
H         -1.08482       -2.31542        0.37890
H          1.58373       -2.06847        0.63713
H          1.16251       -2.02364       -1.08529
H         -0.67263       -0.38079       -1.75861
H         -2.63256        0.13838        0.18793
