19

C	1.982651	-1.616317	-0.515787
C	0.9189	-1.048038	0.4313
C	1.262767	0.392425	0.880671
C	0.481366	1.327976	-0.057648
O	0.774969	2.469443	-0.318856
C	-0.667979	0.55886	-0.612721
C	-1.524113	-0.204673	0.412732
O	-2.814456	-0.553459	0.024177
C	-0.430697	-0.91592	-0.286359
H	2.951702	-1.694244	-0.013135
H	1.703812	-2.614402	-0.869049
H	2.110977	-0.973777	-1.394258
H	0.823011	-1.715972	1.295176
H	0.935376	0.590947	1.909018
H	2.329921	0.621571	0.839891
H	-1.16375	0.902181	-1.511472
H	-1.410837	0.046933	1.467749
H	-3.378268	0.221737	0.120047
H	-0.723418	-1.678724	-0.999674
