19

C	-0.738641	1.856677	-0.394792
C	0.058835	0.617037	0.033334
O	0.170383	0.561637	1.453501
C	-0.665083	-0.683082	-0.367158
C	-2.020386	-0.840719	0.287981
O	-3.041026	-1.063684	-0.314321
C	1.472158	0.670415	-0.615098
C	2.342167	-0.438166	-0.248881
C	3.059719	-1.356244	0.04546
H	-1.724709	1.859422	0.076886
H	-0.215928	2.773289	-0.097014
H	-0.878401	1.888302	-1.479646
H	0.5702	1.382398	1.760549
H	-0.791283	-0.739433	-1.451547
H	-0.037681	-1.523303	-0.042723
H	-2.01095	-0.746772	1.393552
H	1.362193	0.712902	-1.706056
H	1.943315	1.618853	-0.321219
H	3.695777	-2.164784	0.308697
