19
../xyz/dsC7O2H10nsd_0070.xyz
C         -3.87854        0.47925        0.00046
C         -2.70624       -0.50559       -0.00020
C         -1.36414        0.20798        0.00000
O         -0.34061       -0.79662       -0.00055
C          0.93141       -0.39062       -0.00015
C          2.08473       -1.11418        0.00032
C          3.13998       -0.13959        0.00038
C          2.55295        1.08090       -0.00000
O          1.18209        0.93953       -0.00038
H         -4.83399       -0.05240       -0.00010
H         -3.85798        1.12512        0.88503
H         -3.85777        1.12655       -0.88307
H         -2.75687       -1.15852        0.87839
H         -2.75708       -1.15762       -0.87944
H         -1.25315        0.84701       -0.88498
H         -1.25296        0.84623        0.88554
H          2.16477       -2.18782        0.00058
H          4.20096       -0.33602        0.00071
H          2.91129        2.09528       -0.00006
