19
../xyz/dsC7O2H10nsd_0577.xyz
C         -0.66579        2.02940        0.00000
C          0.90157        1.98155        0.00000
C          1.09808        0.46494        0.00000
C          0.04856       -0.03329       -1.04436
O          0.04856       -1.44657       -1.16889
C         -0.43648       -2.06255        0.00000
O          0.04856       -1.44657        1.16889
C          0.04856       -0.03329        1.04436
C         -0.97531        0.52694        0.00000
H         -1.07224        2.53119        0.88279
H         -1.07224        2.53119       -0.88279
H          1.33515        2.45915       -0.88343
H          1.33515        2.45915        0.88343
H          2.10776        0.05580        0.00000
H          0.06382        0.38351       -2.05490
H         -1.53882       -2.04099        0.00000
H         -0.08804       -3.09819        0.00000
H          0.06382        0.38351        2.05490
H         -2.02637        0.23849        0.00000
