19
../xyz/dsC7O2H10nsd_6058.xyz
C         -3.96340       -0.72655        0.20634
C         -2.91307        0.34602       -0.00421
O         -3.18773        1.52195       -0.11903
C         -1.54268       -0.12668       -0.06118
C         -0.40365       -0.52507       -0.11012
C          0.98280       -0.96286       -0.17291
C          1.99543        0.17516        0.06578
C          3.44161       -0.31020       -0.04759
O          4.38422        0.70676        0.23776
H         -4.95337       -0.26902        0.23486
H         -3.91373       -1.46482       -0.60137
H         -3.77032       -1.26359        1.14129
H          1.14407       -1.76410        0.56079
H          1.16206       -1.41917       -1.15648
H          1.81406        0.97380       -0.66420
H          1.83885        0.61058        1.05769
H          3.63011       -1.10156        0.68709
H          3.61219       -0.75104       -1.04420
H          4.28195        1.40031       -0.42196
