19

C	-0.320499	1.436991	0.665849
C	0.173786	1.033565	-0.750049
C	1.621046	0.525563	-0.585184
C	1.633792	-0.454073	0.625424
C	0.217789	-1.038595	0.703168
O	-0.1152	-1.381909	-0.659356
C	-0.7888	-0.197712	-1.041306
O	-1.806588	-0.101883	-0.060349
C	-0.88921	0.061404	1.034749
H	0.482772	1.807919	1.305612
H	-1.130238	2.168749	0.653658
H	0.082838	1.816505	-1.503945
H	1.951948	0.00823	-1.489079
H	2.302394	1.366034	-0.421721
H	2.355638	-1.259722	0.466863
H	1.912081	0.044456	1.559841
H	0.134209	-1.930694	1.325879
H	-1.201962	-0.30041	-2.043315
H	-1.402794	-0.053587	1.987946
