19

C	0.683386	2.190319	0.205383
C	-0.010796	0.929371	-0.279967
O	-1.391865	1.056579	0.035628
C	-2.147085	-0.069137	-0.381695
C	-1.603049	-1.332651	0.268877
O	-0.227307	-1.492728	-0.043631
C	0.537507	-0.362747	0.374711
C	1.933925	-0.604707	0.033507
C	3.088054	-0.770783	-0.255094
H	0.584061	2.288703	1.291032
H	1.744765	2.16895	-0.051073
H	0.222949	3.066108	-0.258641
H	0.108672	0.81594	-1.370038
H	-3.18332	0.115657	-0.082411
H	-2.10781	-0.171846	-1.478097
H	-1.742705	-1.275154	1.36078
H	-2.112459	-2.225678	-0.104875
H	0.439446	-0.24272	1.468453
H	4.108116	-0.928755	-0.505446
