19

O	2.205448	-1.156831	-0.361291
C	1.128373	-0.385395	0.060826
C	1.545521	1.010146	0.554124
O	0.577546	1.668703	-0.295227
C	0.103471	0.414918	-0.823564
C	-1.028766	-0.201916	0.001763
C	-2.374971	-0.6244	-0.514801
C	-2.257262	0.51755	0.466125
C	-0.044178	-1.04458	0.835812
H	1.878546	-2.019035	-0.638291
H	1.390345	1.22505	1.618318
H	2.572459	1.266421	0.269602
H	0.031522	0.415185	-1.914751
H	-2.618723	-0.392508	-1.547043
H	-2.784648	-1.5656	-0.160655
H	-2.41048	1.529893	0.107764
H	-2.589063	0.348587	1.485633
H	-0.048311	-0.901504	1.92087
H	-0.118723	-2.119396	0.62898
