19
../xyz/dsC7O2H10nsd_4554.xyz
C          2.87595       -0.29916       -0.15480
C          1.43067       -0.06205        0.28257
O          0.88828        0.91041       -0.60167
C         -0.14222        1.72865       -0.08830
C         -1.25394        0.96851        0.65734
C         -1.66309       -0.34233       -0.00456
O         -2.76323       -0.49924       -0.49382
C         -0.69004       -1.46396        0.06284
C          0.63028       -1.35076        0.24269
H          3.36122       -1.03633        0.49170
H          2.90144       -0.66642       -1.18494
H          3.43821        0.63595       -0.10775
H          1.44053        0.33305        1.31345
H          0.27116        2.49864        0.58318
H         -0.56228        2.23635       -0.96153
H         -0.91813        0.73813        1.67575
H         -2.13936        1.60500        0.73095
H         -1.14066       -2.44454       -0.06367
H          1.22185       -2.26253        0.30010
