19

C	2.579278	-0.556191	0.160554
O	1.363636	-1.094973	-0.32476
C	0.238529	-0.703645	0.410113
C	-1.025954	-1.331748	-0.188756
C	-2.249293	-0.760458	0.465055
C	-1.559235	0.04309	-0.608207
C	-0.333705	0.691178	-0.000932
C	-0.135658	2.037251	0.540919
O	0.464587	1.621096	-0.70174
H	2.737026	-0.818618	1.218771
H	3.381962	-0.998931	-0.434065
H	2.610769	0.533439	0.050506
H	0.402051	-0.866596	1.488864
H	-1.022301	-2.263429	-0.738536
H	-3.189536	-1.21555	0.171408
H	-2.221912	-0.430908	1.501524
H	-2.045157	0.352328	-1.524912
H	-0.925826	2.780812	0.446103
H	0.563364	2.201602	1.359863
