19
../xyz/dsC7O2H10nsd_0184.xyz
C          1.91266        0.00013       -0.83167
O          2.50345       -0.00012        0.48041
C          1.20548       -0.00010        1.11191
C          0.48052        0.00006       -0.25598
C         -0.41873        1.22301       -0.54071
C         -1.81122        0.73419       -0.19997
O         -1.86807       -0.00014        1.03372
C         -1.81119       -0.73418       -0.20014
C         -0.41868       -1.22286       -0.54100
H          2.18831        0.89304       -1.40944
H          2.18829       -0.89258       -1.40977
H          1.04663       -0.89192        1.73001
H          1.04671        0.89165        1.73013
H         -0.11498        2.10521        0.03143
H         -0.38602        1.49337       -1.60491
H         -2.69218        1.32740       -0.43020
H         -2.69212       -1.32737       -0.43051
H         -0.11489       -2.10519        0.03091
H         -0.38596       -1.49296       -1.60527
