19
../xyz/dsC7O2H10nsd_5284.xyz
O         -1.71554        1.59466       -0.08315
C         -0.31890        1.73698       -0.03062
C          0.50686        0.47933        0.14070
C          2.01386        0.57596        0.45022
C          2.26494       -0.68107       -0.44538
C          0.76119       -0.75562       -0.69591
C          0.02589       -0.88828        0.64057
C         -1.39247       -1.29568        0.52294
O         -2.09735       -1.12905       -0.45175
H         -1.93298        0.85983       -0.67158
H          0.07245        2.26749       -0.91748
H         -0.11395        2.38836        0.82987
H          2.46173        1.48190        0.03367
H          2.29158        0.50469        1.50623
H          2.83572       -0.44011       -1.34494
H          2.71981       -1.55309        0.03439
H          0.24794       -1.09687       -1.58719
H          0.53948       -1.32485        1.49543
H         -1.78690       -1.84198        1.40567
