19

C	2.939494	-0.530647	-0.171589
C	1.540183	-0.069395	0.069223
C	0.481091	-0.656841	1.023631
C	-0.625745	-0.096092	0.074572
C	-1.799901	0.796253	0.508583
O	-2.745906	-0.036772	-0.199764
C	-1.723101	-0.997828	-0.522049
C	0.487916	0.453777	-0.821273
O	1.265023	1.340728	-0.001419
H	3.375999	0.002178	-1.020442
H	3.566367	-0.342825	0.707532
H	2.964972	-1.605433	-0.3781
H	0.480196	-1.750765	1.05203
H	0.503652	-0.263849	2.043714
H	-1.995962	0.808223	1.589046
H	-1.787805	1.826601	0.134978
H	-1.870517	-1.951237	0.004554
H	-1.662816	-1.194669	-1.600672
H	0.473351	0.644768	-1.889763
