19
../xyz/dsC7O2H10nsd_3336.xyz
O          1.08331        1.76067       -0.37554
C         -0.14344        1.07597       -0.42560
C         -0.83363        0.64099        0.88406
O         -2.00777       -0.02106        0.31739
C         -1.46094       -0.84610       -0.77468
C         -0.00457       -0.49643       -0.56305
C          1.41311       -1.05973       -0.73408
C          1.67147       -0.68902        0.77438
C          0.12215       -0.56010        0.99658
H          0.90284        2.66722       -0.10846
H         -0.82642        1.53874       -1.15018
H         -1.17581        1.30359        1.68163
H         -1.69684       -1.90035       -0.59624
H         -1.90999       -0.52559       -1.72152
H          1.41863       -2.14099       -0.89904
H          2.04540       -0.57907       -1.48340
H          2.11803       -1.48384        1.37509
H          2.24246        0.22621        0.90057
H         -0.30756       -1.41625        1.52112
