19
../xyz/dsC7O2H10nsd_2042.xyz
C          1.22043        1.84955       -0.29808
C          0.85831        0.39598       -0.21815
C          1.55258       -0.68847       -1.03473
C          1.49010       -0.80319        0.45352
O          0.22984       -1.34486        0.86311
C         -0.46806       -0.17090        0.35633
C         -1.07671        0.63391        1.49082
C         -1.50041       -0.53134       -0.70021
O         -2.38037        0.21207       -1.05369
H          0.70359        2.33922       -1.13129
H          0.96167        2.38632        0.61969
H          2.29592        1.96922       -0.46309
H          1.01568       -1.39740       -1.65612
H          2.50903       -0.36921       -1.43897
H          2.33261       -0.91600        1.12625
H         -1.61123        1.49958        1.09199
H         -1.79075        0.01218        2.03858
H         -0.30272        0.96543        2.18697
H         -1.36691       -1.54035       -1.14643
