19
../xyz/dsC7O2H10nsd_2590.xyz
C         -2.72075        0.37646       -0.14486
C         -1.31725       -0.11065        0.10143
C         -0.90283       -1.30235       -0.33768
C          0.45573       -1.93092       -0.18618
O          1.41408       -1.16526        0.51874
C          1.81345        0.00877       -0.14630
C          0.81998        1.16971       -0.00986
O          1.02437        2.22701       -0.55283
C         -0.41263        0.87463        0.83553
H         -3.22823        0.60506        0.80094
H         -2.71312        1.30705       -0.72642
H         -3.31914       -0.36150       -0.68512
H         -1.61280       -1.93207       -0.87260
H          0.36730       -2.87331        0.36949
H          0.84752       -2.19646       -1.18590
H          2.75734        0.33175        0.30755
H          2.00812       -0.16481       -1.21615
H         -0.09586        0.45836        1.79739
H         -0.93295        1.81798        1.01098
