19

O	1.874835	-1.404566	-0.220975
C	0.636988	-0.769881	-0.521746
C	-0.501902	-1.054097	0.508825
C	-1.890746	-0.878144	-0.125969
C	-1.902798	0.602523	-0.601779
C	-0.723847	1.236028	0.139442
C	-0.165308	0.301323	1.198057
C	0.654978	0.677656	-0.050467
O	1.743543	1.501077	-0.226172
H	1.972548	-1.403419	0.739452
H	0.449215	-0.986731	-1.579359
H	-0.363973	-1.978765	1.072398
H	-2.066148	-1.586131	-0.942173
H	-2.667988	-1.046082	0.627108
H	-1.788976	0.683754	-1.687915
H	-2.841048	1.101487	-0.341423
H	-0.734381	2.297452	0.365313
H	-0.067102	0.533316	2.250055
H	2.516629	0.920583	-0.204456
