19

O	2.441673	-0.743702	0.255721
C	1.711496	0.042421	-0.681784
C	0.391227	0.484525	-0.128835
C	0.254422	1.614422	0.866277
C	-0.533474	1.688114	-0.406221
C	-1.784713	0.801254	-0.277461
C	-0.836074	-0.39083	-0.041773
C	-0.999259	-1.776812	-0.476403
O	-1.001953	-1.428147	0.919962
H	1.806634	-1.277657	0.745156
H	2.338804	0.908767	-0.920463
H	1.557899	-0.516755	-1.619161
H	-0.252744	1.459161	1.815276
H	1.12574	2.258999	0.926019
H	-0.396417	2.473523	-1.138158
H	-2.458661	1.051472	0.547235
H	-2.363918	0.701977	-1.198592
H	-1.957546	-2.105891	-0.87693
H	-0.139309	-2.357373	-0.808642
