19

C	2.028286	1.482373	-0.591545
C	1.302316	0.664088	0.489901
C	-0.183927	1.02939	0.665469
C	-0.966908	0.030075	-0.236525
C	-0.162001	-1.27473	-0.100583
C	1.289474	-0.82262	0.092975
O	2.264105	-1.509237	-0.06501
C	-2.399686	-0.121226	0.213296
O	-3.371449	0.16484	-0.434499
H	3.033349	1.083585	-0.751018
H	1.495088	1.447251	-1.54776
H	2.109764	2.530843	-0.290613
H	1.859298	0.760496	1.42767
H	-0.488856	0.88584	1.709702
H	-0.404979	2.066766	0.403192
H	-0.974921	0.375612	-1.274177
H	-0.460111	-1.817074	0.809562
H	-0.258827	-1.969395	-0.93699
H	-2.496382	-0.532854	1.248576
