19
../xyz/dsC7O2H10nsd_3832.xyz
C         -2.02058       -1.43057        0.02935
C         -0.78048       -0.57408        0.05713
C         -0.01482       -0.17820        1.37225
C          0.57261        0.99454        0.51630
C          1.41419        0.22343       -0.51214
O          2.60172       -0.23329        0.11213
C          0.40635       -0.92599       -0.87452
C         -0.81474        0.95436       -0.15378
O         -1.63595        1.75359       -0.49434
H         -2.44827       -1.46127       -0.97843
H         -1.80070       -2.46053        0.33071
H         -2.78779       -1.03541        0.70232
H         -0.68093        0.16162        2.16710
H          0.71702       -0.89535        1.74594
H          0.99771        1.89735        0.94727
H          1.65542        0.84710       -1.38318
H          3.08821       -0.76602       -0.52552
H          0.12094       -0.92962       -1.93093
H          0.83705       -1.90130       -0.62519
