19

C	2.060269	-0.735684	-0.993519
C	1.501204	0.063184	0.193167
C	0.671815	-0.818209	1.132097
O	-0.575776	-1.249879	0.568564
C	-1.3483	-0.408186	-0.170627
O	-2.40585	-0.804149	-0.583373
C	-0.815939	0.950147	-0.480762
C	-0.333293	1.893667	0.612878
C	0.662467	1.232926	-0.288707
H	2.716636	-1.541279	-0.649763
H	1.254481	-1.185227	-1.581459
H	2.641057	-0.089479	-1.659033
H	2.341783	0.442734	0.789997
H	1.20961	-1.741095	1.364437
H	0.475318	-0.30734	2.081554
H	-1.343916	1.400929	-1.3114
H	-0.546999	2.944023	0.452383
H	-0.416031	1.58433	1.647574
H	1.131727	1.857555	-1.042983
