19

O	2.38198	0.330158	-0.720279
C	1.581109	-0.722947	-0.322926
C	1.171871	-0.930328	1.0908
C	0.111929	-0.495505	0.064097
C	-1.068465	-1.356076	-0.364379
C	-2.303637	-0.497163	0.009496
C	-1.837329	0.954989	-0.192496
C	-0.345759	0.917351	0.126845
O	0.363177	1.879187	0.36432
H	2.026971	1.13447	-0.303082
H	1.768506	-1.604221	-0.930468
H	1.08234	-1.94158	1.47486
H	1.468509	-0.176427	1.813643
H	-1.044464	-1.529248	-1.447733
H	-1.083159	-2.336393	0.119512
H	-3.186118	-0.750829	-0.582158
H	-2.55787	-0.657954	1.062932
H	-1.939947	1.26346	-1.242137
H	-2.354339	1.702031	0.413678
