19

O	-3.602827	-0.242406	0.421962
C	-2.536792	-0.418392	-0.111564
C	-1.504483	0.669096	-0.33157
C	-0.135251	0.300491	0.244745
C	0.969959	1.365668	0.032607
C	2.221673	0.536037	-0.198822
C	2.508984	-0.586232	0.786721
C	1.726644	-0.854404	-0.47233
O	0.324358	-0.893959	-0.400063
H	-2.235261	-1.419783	-0.485258
H	-1.388072	0.816223	-1.4139
H	-1.874537	1.596754	0.114372
H	-0.246375	0.102463	1.320875
H	0.758337	1.967698	-0.858417
H	1.033794	2.044624	0.888023
H	3.041215	0.973837	-0.755755
H	3.527051	-0.958752	0.822584
H	1.99585	-0.601617	1.742555
H	2.111343	-1.504111	-1.248994
