19
../xyz/dsC7O2H10nsd_1325.xyz
C          0.60982        0.82441        1.64534
C          0.40025        0.03635        0.33571
C          1.55512       -0.94608        0.16832
O          2.36170       -0.93346       -0.72499
C          0.34120        0.98721       -0.86041
O         -0.18345        2.07206       -0.81564
C         -0.89058       -0.79320        0.43276
C         -2.25263       -0.16390        0.29811
C         -1.75915       -1.12177       -0.75776
H         -0.19913        1.54761        1.76195
H          0.60575        0.14887        2.50645
H          1.55888        1.36862        1.63591
H          1.60705       -1.71172        0.97788
H          0.80305        0.60609       -1.79106
H         -0.80747       -1.57747        1.18261
H         -3.03192       -0.49437        0.97547
H         -2.29487        0.88786        0.03830
H         -2.19492       -2.11312       -0.80881
H         -1.49653       -0.70936       -1.72599
