19
../xyz/dsC7O2H10nsd_1323.xyz
C         -2.96779        1.14739        0.50043
C         -2.02205        0.25798       -0.30679
O         -2.52856       -1.06871       -0.42117
C         -0.59547        0.26959        0.26244
C          0.37249       -0.60230       -0.55873
C          1.75955       -0.62551        0.05206
O          2.21157       -1.58261        0.64244
C          2.53200        0.60319       -0.08866
C          3.16573        1.61916       -0.21504
H         -3.01585        0.81559        1.54530
H         -2.63341        2.18978        0.49806
H         -3.97646        1.10390        0.08128
H         -1.98693        0.62096       -1.34211
H         -2.64468       -1.41593        0.47082
H         -0.22990        1.30242        0.30194
H         -0.62255       -0.09442        1.29926
H          0.00347       -1.62871       -0.60127
H          0.43600       -0.20822       -1.58058
H          3.73946        2.50829       -0.31700
