19
../xyz/dsC7O2H10nsd_2255.xyz
O         -2.32060        0.15934       -0.41943
C         -0.95784        0.21224       -0.13865
C         -0.27306        1.56563       -0.24510
C          0.79632        0.97567        0.72295
C          1.86181        0.27446       -0.11902
O          1.21610       -0.50994       -1.12723
C         -0.03949       -0.97767       -0.66667
C          0.04634       -1.51831        0.79049
C         -0.26530       -0.08135        1.24245
H         -2.62530       -0.75170       -0.34991
H          0.06180        1.90800       -1.22832
H         -0.88373        2.33589        0.23380
H          1.23537        1.64051        1.46800
H          2.49860        0.99567       -0.64211
H          2.51033       -0.35784        0.50460
H         -0.45524       -1.61041       -1.45506
H         -0.78552       -2.19152        1.02363
H          0.98053       -2.00297        1.08699
H         -0.71358        0.13521        2.21300
