19
../xyz/dsC7O2H10nsd_1720.xyz
C          1.67410        1.61410       -0.36561
C          1.61514        0.14343       -0.03073
C          0.41492       -0.61005       -0.56518
O         -0.75263       -0.04490       -0.00080
C         -1.93635       -0.63205       -0.50650
C         -3.10249       -0.00745        0.10312
C         -4.08064        0.49027        0.59001
C          2.31495       -0.39331        1.14390
O          2.83939       -0.58800       -0.17445
H          2.56258        2.07649        0.07049
H          1.71078        1.75687       -1.45139
H          0.78189        2.12027        0.01253
H          0.38781       -0.53152       -1.66598
H          0.50565       -1.67769       -0.31224
H         -1.98381       -0.51876       -1.60329
H         -1.94620       -1.71639       -0.30199
H         -4.94211        0.93424        1.02429
H          2.88958        0.27985        1.77821
H          1.94196       -1.28979        1.63726
