19

O	-3.33466	-0.003593	-0.122173
C	-1.996819	-0.406947	-0.005153
C	-0.951509	0.01922	-1.07078
C	0.092119	0.123335	0.073375
C	-1.079896	0.214391	1.082539
C	1.259953	1.147824	0.021499
C	2.243104	-0.033225	-0.008243
O	3.423008	-0.128017	-0.178917
C	1.113006	-1.052133	0.211981
H	-3.35202	0.95539	-0.210803
H	-2.02724	-1.496204	0.091945
H	-0.747644	-0.658158	-1.904284
H	-1.194856	1.010184	-1.472676
H	-0.982087	-0.300864	2.041863
H	-1.358517	1.258667	1.269669
H	1.300328	1.81384	-0.846229
H	1.365754	1.755445	0.927548
H	1.058745	-1.855656	-0.528935
H	1.150999	-1.504544	1.20932
