19

C	2.548548	0.115872	1.010992
C	1.14624	-0.360533	0.695745
C	0.903398	-0.983251	-0.646149
O	-0.397547	-1.58168	-0.707361
C	-1.016458	-0.286045	-0.541504
C	-1.98826	-0.193351	0.61384
O	-2.76418	0.719569	0.741521
C	0.353859	0.402336	-0.367059
C	0.644321	1.783668	-0.874911
H	2.538439	0.984732	1.677541
H	3.117851	-0.679165	1.502874
H	3.096471	0.39884	0.106622
H	0.615184	-0.791384	1.541618
H	1.667154	-1.355518	-1.320323
H	-1.516847	0.034556	-1.463687
H	-1.916157	-1.019652	1.354717
H	0.08342	2.529416	-0.299576
H	1.704865	2.03395	-0.792973
H	0.353556	1.888933	-1.925819
