19

O	-4.212595	0.129895	-0.220421
C	-3.225337	-0.749195	0.305582
C	-1.854622	-0.343786	0.003884
C	-0.736364	0.040294	-0.236787
C	0.594424	0.477942	-0.536198
C	1.168495	1.714888	0.141705
C	1.696495	0.358243	0.506005
C	3.076016	-0.070548	0.06395
O	3.174186	-1.455286	-0.22824
H	-3.952637	1.025524	0.018734
H	-3.33668	-0.86527	1.396213
H	-3.437039	-1.729415	-0.136555
H	0.91622	0.310764	-1.560562
H	1.792137	2.363556	-0.46462
H	0.536735	2.230025	0.855105
H	1.379194	-0.031635	1.4702
H	3.34149	0.444849	-0.865857
H	3.8168	0.232029	0.821865
H	2.936401	-1.944335	0.565917
