19

C	-2.133508	0.0	-0.369769
C	-1.197325	1.244037	-0.38518
C	0.051434	0.745289	0.310795
O	1.346531	1.147616	-0.072632
C	1.902935	0.0	-0.70553
O	1.34653	-1.147617	-0.072633
C	0.051434	-0.745289	0.310795
C	-1.197326	-1.244037	-0.38518
C	-0.033442	0.0	1.628171
H	-2.73644	1e-06	0.544018
H	-2.835478	0.0	-1.207277
H	-0.929708	1.518719	-1.412007
H	-1.661589	2.119031	0.079734
H	1.654152	1e-06	-1.780803
H	2.987034	0.0	-0.56485
H	-0.929709	-1.51872	-1.412007
H	-1.66159	-2.119031	0.079735
H	-0.965679	-1e-06	2.184818
H	0.86931	0.0	2.226153
