19

C	-2.277771	1.264476	-0.232865
C	-1.574967	-0.063685	-0.014888
O	-2.177998	-1.115351	-0.105125
C	-0.114544	-0.044338	0.28674
C	0.494854	-1.33107	0.848768
C	0.806266	-0.94447	-0.553027
O	1.987971	-0.268597	-0.851391
C	2.131142	0.806541	0.077654
C	0.699594	1.225687	0.491605
H	-2.169409	1.913233	0.643048
H	-1.83877	1.799451	-1.082768
H	-3.334665	1.080842	-0.427978
H	1.257947	-1.244328	1.614136
H	-0.217977	-2.137192	0.977677
H	0.426078	-1.521386	-1.387162
H	2.708394	0.478231	0.952312
H	2.693481	1.601665	-0.417895
H	0.679017	1.60191	1.519162
H	0.328669	2.020318	-0.162323
