19
../xyz/dsC7O2H10nsd_4794.xyz
C         -1.52475       -2.30108        0.14644
C         -1.86310       -0.85162       -0.20606
C         -0.78085        0.13975        0.23883
O          0.43159       -0.18967       -0.48702
C          1.60594        0.01067        0.16183
C          2.76498       -0.32850       -0.74340
O          1.69287        0.40465        1.29540
C         -1.15395        1.52644       -0.02849
C         -1.48992        2.65762       -0.25327
H         -1.40084       -2.42867        1.22740
H         -2.32304       -2.97357       -0.18009
H         -0.59743       -2.61621       -0.33902
H         -2.01055       -0.74009       -1.28556
H         -2.79951       -0.54824        0.27400
H         -0.56816        0.02362        1.30647
H          3.69432       -0.27363       -0.17790
H          2.63762       -1.32642       -1.17060
H          2.79788        0.38057       -1.57611
H         -1.77609        3.66311       -0.44087
