19
../xyz/dsC7O2H10nsd_0519.xyz
C         -1.79678       -0.86056        0.28060
O         -2.03389        0.50133       -0.16953
C         -0.69999        0.57173       -0.73885
C          0.30442        1.64049       -0.27006
C          1.24332        0.72205        0.56034
C          1.97483       -0.33347       -0.33200
C          0.87170       -1.43892       -0.52301
C         -0.29622       -0.67144        0.07612
O          0.28656       -0.08717        1.25107
H         -2.12394       -1.02518        1.31087
H         -2.26256       -1.59399       -0.38970
H         -0.74400        0.45365       -1.82793
H          0.79716        2.15660       -1.09833
H         -0.17132        2.37848        0.38014
H          1.88700        1.23635        1.27431
H          2.31591        0.08787       -1.28155
H          2.84696       -0.73357        0.18855
H          0.71599       -1.71000       -1.57013
H          1.10974       -2.34283        0.04258
