19
../xyz/dsC7O2H10nsd_2976.xyz
C         -2.60574       -0.66224        0.31670
C         -1.46132        0.04791       -0.39557
O         -0.40985       -0.92390       -0.53627
C          0.81175       -0.44089       -1.03177
C          1.89692       -0.43194        0.01399
O          1.60521       -0.94289        1.26640
C          1.28492        0.88621       -0.48047
C          0.29670        1.64198        0.32144
C         -0.98302        1.27437        0.34748
H         -2.30886       -0.94900        1.33032
H         -3.47574       -0.00253        0.38580
H         -2.89224       -1.56357       -0.23086
H         -1.79716        0.33983       -1.40479
H          1.01460       -0.72574       -2.06181
H          2.91914       -0.63549       -0.29083
H          0.68630       -1.24432        1.21545
H          1.93245        1.47976       -1.12059
H          0.64343        2.50702        0.87942
H         -1.72596        1.83597        0.90613
