19

C	1.72828	-0.966275	-1.104638
C	0.869508	-0.908316	0.154676
O	1.617227	-0.615535	1.323967
C	-0.305521	0.087388	0.023863
C	-1.443978	-0.108316	1.064251
C	-2.300606	-0.504719	-0.152244
O	-1.193635	-0.297987	-1.060953
C	0.188125	1.456028	-0.110252
C	0.623708	2.574469	-0.195927
H	2.513514	-1.717092	-0.984283
H	1.114489	-1.225663	-1.971426
H	2.199694	0.003357	-1.297592
H	0.422766	-1.892524	0.335452
H	2.004751	0.260274	1.202483
H	-1.241382	-0.893042	1.793415
H	-1.754348	0.799415	1.579999
H	-2.654843	-1.541372	-0.176752
H	-3.137988	0.164381	-0.379398
H	0.987508	3.568876	-0.284391
