19
../xyz/dsC7O2H10nsd_2946.xyz
C         -1.78461       -0.83725       -1.08290
C         -0.28480       -0.63238       -0.90180
C          0.45068       -1.23785        0.36119
C          1.89054       -0.83460        0.04785
C          1.77839        0.43410       -0.36815
C          0.27424        0.68999       -0.25866
O         -0.30585        1.90899       -0.60944
C          0.03057        0.05762        1.16412
O         -1.28371        0.13402        1.65102
H         -2.18503       -0.07878       -1.76508
H         -1.96540       -1.81562       -1.54205
H         -2.33903       -0.79304       -0.14763
H          0.22381       -0.87045       -1.84019
H          0.24036       -2.23810        0.73437
H          2.77306       -1.44750        0.16590
H          2.53040        1.14218       -0.68974
H          0.23214        2.62439       -0.25241
H          0.74450        0.35255        1.94434
H         -1.66843        0.94250        1.29001
