19

C	-2.708595	0.060322	0.230003
O	-1.563813	-0.761858	0.119057
C	-0.569961	-0.244792	-0.707866
C	0.705937	-1.116326	-0.825969
C	1.411147	0.195578	-1.309146
C	0.543224	0.706366	-0.102232
C	0.432205	2.101155	0.443466
C	1.035366	-0.585871	0.583528
O	1.483659	-0.949165	1.624944
H	-3.154675	0.262705	-0.75561
H	-3.433388	-0.481157	0.841365
H	-2.483635	1.020892	0.713356
H	-0.973997	0.109207	-1.667527
H	0.788486	-2.116778	-1.241746
H	2.494182	0.24689	-1.196926
H	1.086664	0.553684	-2.289577
H	0.021005	2.793187	-0.299046
H	-0.2142	2.123559	1.326449
H	1.414854	2.477406	0.746556
