19
../xyz/dsC7O2H10nsd_1233.xyz
C          3.16141        1.11621       -0.14003
C          2.48368       -0.18681        0.30829
O          2.80176       -1.26966       -0.56372
C          1.03396       -0.01674        0.45832
C         -0.16048        0.12662        0.54221
C         -1.59583        0.27853        0.63978
C         -2.50501       -0.93730        0.29873
O         -3.29470       -0.14277       -0.60499
C         -2.36754        0.95461       -0.52959
H          2.99192        1.91504        0.58781
H          4.23646        0.94855       -0.24484
H          2.76004        1.44430       -1.10445
H          2.90625       -0.48604        1.27531
H          2.33068       -1.11981       -1.39104
H         -1.86803        0.71989        1.60277
H         -1.97703       -1.75037       -0.21451
H         -3.10065       -1.34736        1.12099
H         -1.77273        1.06059       -1.44555
H         -2.86447        1.90392       -0.30315
