19

C	-2.848711	0.144029	0.14295
C	-1.943299	-1.083678	-0.082623
C	-0.86179	-0.041297	-0.435378
O	-1.766345	1.053545	-0.158643
C	0.372306	0.022386	0.464813
O	1.196293	-1.117844	0.211972
C	2.513311	-0.707214	-0.155399
C	2.464492	0.79485	-0.1678
C	1.255334	1.209006	0.19186
H	-3.679657	0.254677	-0.564588
H	-3.230423	0.287753	1.160726
H	-1.72569	-1.676203	0.807802
H	-2.23865	-1.750308	-0.893124
H	-0.539538	-0.044415	-1.484936
H	0.028606	0.005541	1.513228
H	3.244253	-1.097797	0.570796
H	2.774916	-1.132467	-1.136551
H	3.314361	1.411757	-0.431286
H	0.902385	2.227378	0.280764
