19

C	-2.351445	-0.765788	0.25114
C	-1.014553	-0.103044	0.094301
C	-0.176645	0.278462	1.335568
C	1.058502	0.83171	0.56682
C	2.010414	-0.341065	0.325327
O	1.206196	-1.288154	-0.412111
C	0.11261	-0.560659	-0.913283
C	0.365699	0.950498	-0.836926
O	-1.038012	1.183562	-0.61338
H	-3.01314	-0.162069	0.881485
H	-2.834269	-0.904259	-0.720388
H	-2.231736	-1.746249	0.723141
H	-0.700271	1.039535	1.918251
H	0.069518	-0.569383	1.980355
H	1.522858	1.729742	0.972091
H	2.890117	-0.058706	-0.27197
H	2.356418	-0.816448	1.248347
H	-0.250794	-0.980244	-1.850708
H	0.818341	1.564126	-1.614358
