19
../xyz/dsC7O2H10nsd_4580.xyz
O          2.62795       -0.09484       -0.36627
C          1.36331       -0.17638        0.30283
C          0.54448       -1.14070       -0.56897
O         -0.52505       -1.78547        0.09041
C         -1.50475       -0.92342        0.67066
C         -2.06059        0.08817       -0.29116
C         -1.49595        1.28053       -0.52154
C         -0.30284        1.82755        0.12899
C          0.83122        1.22390        0.51270
H          3.11581        0.65192       -0.00464
H          1.49973       -0.65043        1.29023
H          0.21663       -0.62189       -1.47820
H          1.22314       -1.94336       -0.86852
H         -2.29097       -1.59605        1.02407
H         -1.08431       -0.40625        1.54571
H         -2.95444       -0.18592       -0.84498
H         -1.99044        1.96039       -1.21373
H         -0.36224        2.89821        0.32490
H          1.55457        1.85801        1.03095
