19

C	-3.466308	0.145526	0.063417
O	-2.145054	0.493949	-0.271731
C	-1.247408	-0.59439	-0.166599
C	0.130838	-0.092829	-0.548296
C	1.338076	-0.992773	-0.116775
O	1.166142	-0.475361	1.24475
C	0.866924	0.772898	0.531188
C	2.206213	1.056268	-0.171019
C	2.53068	-0.158277	-0.619275
H	-3.543199	-0.219403	1.099961
H	-4.079632	1.044004	-0.041333
H	-3.865141	-0.636073	-0.603258
H	-1.23595	-0.996803	0.856547
H	-1.553936	-1.40956	-0.846309
H	0.141525	0.292729	-1.570244
H	1.350765	-2.07982	-0.19315
H	0.374582	1.53659	1.130062
H	2.708725	2.00741	-0.263676
H	3.37946	-0.506312	-1.188606
