19

O	-2.189286	-0.293254	1.056563
C	-1.719517	0.117914	-0.231376
C	-0.843835	1.380173	-0.155869
C	0.569745	1.08607	0.343719
C	1.731031	0.999012	-0.633364
C	1.168649	-0.248245	0.007358
O	1.919074	-0.846731	1.037316
C	0.325548	-1.191164	-0.779006
C	-0.991465	-1.026219	-0.908114
H	-1.444306	-0.702976	1.510614
H	-2.631348	0.358379	-0.787887
H	-0.802917	1.831096	-1.154765
H	-1.339162	2.101704	0.50019
H	0.826895	1.456502	1.33006
H	1.527073	1.180885	-1.684148
H	2.703585	1.328312	-0.283387
H	2.643085	-1.337319	0.631814
H	0.827819	-2.049407	-1.223113
H	-1.589959	-1.752543	-1.450497
