19
../xyz/dsC7O2H10nsd_1216.xyz
C         -2.37375       -0.87154        0.69920
C         -1.22213       -0.16946       -0.03183
C         -1.72509        1.06361       -0.78436
O         -0.68116       -1.02988       -1.03783
C         -0.11167        0.20907        0.99363
C          1.16092        0.67555        0.30638
O          1.35473        1.83089       -0.00554
C          2.14982       -0.35592        0.03140
C          2.97868       -1.20827       -0.15982
H         -2.81518       -0.22565        1.46485
H         -3.15414       -1.14676       -0.01577
H         -2.02313       -1.78540        1.19312
H         -2.22099        1.75852       -0.10102
H         -0.90124        1.58928       -1.27060
H         -2.44153        0.75304       -1.54967
H         -0.33864       -1.82297       -0.61089
H         -0.46579        1.02055        1.63598
H          0.10976       -0.66187        1.62109
H          3.72162       -1.94510       -0.34772
