19

O	3.742747	-0.257042	-0.05145
C	2.39142	-0.347255	-0.471398
C	1.543482	0.400247	0.561608
C	0.074666	0.374282	0.264211
C	-0.690525	1.429993	-0.036516
C	-2.133893	1.079749	-0.264541
C	-2.166034	-0.440273	-0.034555
O	-3.136898	-1.145986	-0.101661
C	-0.737205	-0.901005	0.29545
H	4.29028	-0.717531	-0.693901
H	2.244407	0.107887	-1.463596
H	2.065393	-1.397138	-0.540064
H	1.7405	-0.055485	1.541459
H	1.898792	1.434718	0.613385
H	-0.319699	2.447388	-0.102481
H	-2.828749	1.578247	0.424115
H	-2.494637	1.310036	-1.275926
H	-0.718703	-1.403893	1.271777
H	-0.415845	-1.654432	-0.435439
