19

O	-1.288849	1.871806	0.075755
C	-1.008381	0.578908	-0.442894
C	-2.073579	-0.410895	0.037602
O	-1.953143	-1.60769	0.060657
C	0.404434	0.124652	-0.155206
C	1.117125	-1.173916	-0.638808
C	2.16913	-0.404437	0.211059
C	1.711201	0.89199	-0.516815
C	1.040819	-0.143689	1.249691
H	-0.997326	1.888712	0.994324
H	-1.141693	0.66742	-1.5318
H	-3.005356	0.09951	0.374969
H	0.735688	-2.11227	-0.235214
H	1.312801	-1.244173	-1.712729
H	3.193161	-0.708809	0.426558
H	1.882584	1.838832	0.002148
H	1.949708	0.969887	-1.581295
H	0.663448	-1.010191	1.798202
H	1.178421	0.722481	1.905762
