19

C	-2.892023	0.452632	0.263074
C	-1.43356	0.183446	0.03747
C	-0.530698	1.176196	-0.067331
C	0.909206	0.937979	-0.212153
O	1.729431	1.839963	-0.206391
C	1.385729	-0.522782	-0.265978
O	1.717436	-0.919337	1.065741
C	0.307014	-1.464755	-0.778934
C	-1.014702	-1.26427	-0.028455
H	-3.239999	-0.053089	1.172735
H	-3.103096	1.520128	0.357398
H	-3.49182	0.048304	-0.562184
H	-0.829235	2.218889	-0.001857
H	2.274159	-0.556663	-0.911777
H	2.345529	-0.27044	1.403874
H	0.155881	-1.266141	-1.846525
H	0.652395	-2.498869	-0.682761
H	-1.811641	-1.859248	-0.489306
H	-0.912907	-1.638551	0.999448
