19

C	2.535432	-0.283794	0.366052
C	1.215867	-0.736965	-0.252475
O	0.787132	0.160842	-1.299879
C	-0.434595	0.757406	-0.896313
C	-0.248814	1.672782	0.357871
C	-0.631991	0.474125	1.228242
C	0.019981	-0.815973	0.689959
C	-1.178365	-0.270852	0.0109
O	-2.320786	-0.998438	-0.233004
H	2.423509	0.652592	0.918334
H	2.904651	-1.046791	1.060292
H	3.288536	-0.139505	-0.413925
H	1.369988	-1.721692	-0.717168
H	-0.930406	1.176141	-1.772197
H	0.741968	2.121543	0.467269
H	-1.009488	2.458867	0.40888
H	-1.010177	0.502231	2.243582
H	-0.105996	-1.690828	1.317345
H	-3.068434	-0.392171	-0.274757
