19
../xyz/dsC7O2H10nsd_2944.xyz
C         -2.26070       -1.14714        0.05349
C         -1.20107       -0.22504       -0.57103
C         -1.46642        1.24267       -0.29599
C         -0.51506        1.81452        0.44948
C          0.60265        0.87502        0.72799
C          1.33343        0.38720       -0.52666
O          2.56981       -0.25683       -0.37282
C          0.19852       -0.42736        0.02077
O          0.48808       -1.68999        0.51570
H         -2.01759       -2.19621       -0.12995
H         -2.31953       -0.99589        1.13533
H         -3.24605       -0.93685       -0.37451
H         -1.17568       -0.41607       -1.65282
H         -2.35886        1.73880       -0.66102
H         -0.51666        2.84684        0.78206
H          1.14960        0.87952        1.66549
H          1.21900        0.96116       -1.44677
H          3.21009        0.37574       -0.03158
H          1.44448       -1.80167        0.42248
