19

C	2.204339	0.52448	-0.760745
C	0.720466	0.208663	-0.874202
C	0.150951	-1.221788	-0.556874
C	0.59097	-1.449671	0.910411
C	0.273747	-0.041069	1.518919
C	-0.288775	0.663026	0.27081
O	-0.729072	1.959576	0.449979
C	-1.156243	-0.443078	-0.342585
O	-2.294057	-0.501277	-0.714104
H	2.647377	0.17167	0.173469
H	2.760913	0.067079	-1.585143
H	2.359967	1.607082	-0.813267
H	0.340535	0.551573	-1.842609
H	0.223307	-2.045415	-1.262612
H	0.017889	-2.249032	1.386639
H	1.648974	-1.711335	0.983574
H	-0.470721	-0.075997	2.317931
H	1.157814	0.470241	1.907082
H	-1.473743	2.10436	-0.146468
