19
../xyz/dsC7O2H10nsd_2707.xyz
C         -0.18642        2.19434       -0.10348
C         -0.07255        0.77765       -0.65295
C         -1.05970       -0.20849       -0.02358
O         -2.43440       -0.10299        0.01712
C         -0.42413       -1.59272       -0.05975
C          0.95811       -1.44863       -0.69582
C          1.01846       -0.08432        0.04197
O          2.20604        0.55945        0.33654
C         -0.09304       -0.62479        1.06472
H          0.67367        2.79909       -0.40278
H         -1.09094        2.68617       -0.47858
H         -0.22486        2.19184        0.99173
H         -0.02142        0.79274       -1.74970
H         -2.66029        0.67402        0.54041
H         -1.04563       -2.47561        0.00852
H          1.66210       -2.17098       -0.26640
H          1.05576       -1.43828       -1.78766
H          2.80276       -0.07326        0.75007
H         -0.16864       -0.71556        2.13847
