19
../xyz/dsC7O2H10nsd_0221.xyz
C         -1.98633        0.01765        0.00000
C         -0.86796        0.27461       -1.04250
O         -0.08348       -0.91703       -1.17396
C          0.69301       -1.12258        0.00001
C          1.88605       -0.16853       -0.00000
C          1.33569        1.28119       -0.00001
C         -0.18653        1.21510       -0.00001
C         -0.86796        0.27463        1.04249
O         -0.08347       -0.91701        1.17398
H         -2.74799        0.80205       -0.00001
H         -2.44144       -0.97392        0.00001
H         -1.10415        0.62706       -2.04837
H          0.99331       -2.17258        0.00002
H          2.49772       -0.37050        0.88375
H          2.49770       -0.37051       -0.88377
H          1.68385        1.83580        0.87733
H          1.68386        1.83580       -0.87734
H         -0.65896        2.19971       -0.00002
H         -1.10415        0.62709        2.04836
