19

C	-2.690408	-0.082891	-0.431638
O	-1.689338	-0.642133	0.393463
C	-0.435439	-0.068194	0.289996
C	-0.128507	1.447158	0.49738
C	1.171937	1.114675	-0.25205
C	1.800568	-0.213354	0.337545
C	0.627971	-0.725308	1.187731
O	1.564822	-0.908944	-0.926718
C	0.469847	0.002753	-1.055518
H	-2.432108	-0.156724	-1.497393
H	-3.60283	-0.655865	-0.252579
H	-2.882918	0.971552	-0.189986
H	-0.755566	2.104717	-0.11169
H	-0.088192	1.819792	1.524561
H	1.832723	1.854056	-0.697708
H	2.823971	-0.293836	0.700607
H	0.584538	-1.815603	1.181111
H	0.598312	-0.349498	2.213569
H	0.022386	0.080987	-2.045122
