19

C	-2.6044	-0.29997	0.343456
O	-1.518186	-0.368085	-0.555942
C	-0.338321	0.289564	-0.170637
C	-0.553305	1.794944	-0.073273
C	0.854288	-0.345237	-0.99118
O	0.753971	-1.51278	-0.121728
C	0.511108	-0.518363	0.915525
C	1.828654	0.262966	0.912569
C	2.067679	0.378335	-0.398152
H	-3.039741	0.706962	0.407782
H	-3.367203	-0.983104	-0.037382
H	-2.322173	-0.622973	1.355739
H	-1.028466	2.151295	-0.99293
H	-1.218395	2.040729	0.760551
H	0.379587	2.336035	0.075929
H	0.781066	-0.557746	-2.056576
H	0.100838	-0.913937	1.84392
H	2.370439	0.64088	1.767193
H	2.863557	0.875352	-0.93271
