19

O	3.314987	-0.438651	0.007373
C	1.978735	-0.834862	0.018417
C	1.048177	0.372235	-0.015214
O	1.547035	1.485284	-0.068849
C	-0.408522	0.141704	0.014849
C	-1.309216	1.135343	0.017712
C	-2.721565	0.63018	0.097339
C	-2.572432	-0.887963	-0.184432
C	-1.08389	-1.216862	0.10228
H	3.279551	0.53201	-0.037425
H	1.740795	-1.477888	-0.846778
H	1.742644	-1.433457	0.914839
H	-1.041112	2.185386	-0.000127
H	-3.132462	0.827989	1.098262
H	-3.392594	1.13307	-0.607654
H	-3.259762	-1.498497	0.405219
H	-2.790605	-1.082378	-1.238907
H	-0.950744	-1.6493	1.103402
H	-0.679605	-1.948658	-0.604726
