19
../xyz/dsC7O2H10nsd_3519.xyz
C          2.40974       -1.16040        0.13688
C          1.04741       -0.64312       -0.31902
C         -0.12530       -1.59329        0.01761
C         -1.36669       -0.71771       -0.00809
O         -2.51531       -1.04599       -0.12951
C         -0.87655        0.75622        0.13794
O         -1.59040        1.72183        0.09687
C          0.63748        0.71780        0.30350
C          1.33926        1.96337       -0.23083
H          3.21243       -0.46644       -0.13039
H          2.43044       -1.29632        1.22467
H          2.63812       -2.12669       -0.32439
H          1.07030       -0.51005       -1.40996
H         -0.22204       -2.45311       -0.64933
H         -0.01283       -1.98628        1.03907
H          0.80587        0.64515        1.39233
H          1.23826        2.02856       -1.31928
H          0.88804        2.86204        0.19741
H          2.40499        1.95923        0.01298
