19
../xyz/dsC7O2H10nsd_1172.xyz
C          3.72374       -0.93581        0.00117
C          2.56419        0.04336       -0.00059
O          2.73669        1.24182       -0.00120
C          1.16950       -0.56300       -0.00126
C          0.06613        0.48281        0.00077
O         -1.17233       -0.20127       -0.00028
C         -2.27326        0.68591        0.00115
C         -3.52111       -0.06635        0.00012
C         -4.56434       -0.66083       -0.00070
H          4.66830       -0.39084       -0.00279
H          3.67470       -1.58330        0.88389
H          3.67152       -1.59162       -0.87514
H          1.06452       -1.21917       -0.87506
H          1.06474       -1.22263        0.86993
H          0.15585        1.13197        0.88524
H          0.15566        1.13514       -0.88136
H         -2.23759        1.34426        0.88627
H         -2.23772        1.34698       -0.88194
H         -5.48402       -1.19179       -0.00116
