19
../xyz/dsC7O2H10nsd_1410.xyz
C         -1.07686        1.62566        0.02786
C         -1.18007        0.11424       -0.00787
O         -2.53436       -0.30690        0.01274
C         -0.35472       -0.90266       -0.76975
C         -0.39178       -0.87391        0.79230
C          1.13782       -0.66972        0.78358
O          1.68316        0.67929        0.75930
C          1.86147        0.62090       -0.68410
C          1.18234       -0.76093       -0.74796
H         -1.78622        1.99102        0.77726
H         -0.08489        1.96994        0.30780
H         -1.35808        2.05994       -0.94001
H         -2.95422        0.04116       -0.78188
H         -0.87931       -1.58892       -1.42422
H         -0.91181       -1.53970        1.47111
H          1.69691       -1.32921        1.45173
H          1.38042        1.45688       -1.20238
H          2.92770        0.60274       -0.94012
H          1.70993       -1.56448       -1.25997
