19

O	-4.228397	0.215847	-0.431718
C	-3.263545	-0.690741	0.088305
C	-1.924471	-0.116385	0.206898
C	-0.839688	0.393651	0.327344
C	0.488813	0.983386	0.435361
C	1.532193	0.276659	-0.433641
C	3.003205	0.718374	-0.270912
C	3.251266	-0.759483	0.090984
O	1.839429	-1.053717	0.037123
H	-4.172873	1.022199	0.091416
H	-3.577415	-1.089382	1.066492
H	-3.248994	-1.538385	-0.605869
H	0.452082	2.039194	0.131849
H	0.832482	0.964627	1.477474
H	1.182945	0.250989	-1.474339
H	3.497466	1.090261	-1.169122
H	3.169279	1.421496	0.548625
H	3.81521	-1.330552	-0.657445
H	3.674927	-0.960239	1.081638
