19
../xyz/dsC7O2H10nsd_3479.xyz
C          0.92836       -1.64538       -1.08335
C          0.35559       -0.49525       -0.28741
O          0.85559       -0.49385        1.08896
C          1.52801        0.77308        0.89748
C          0.88337        0.95103       -0.49582
C         -0.36227        1.79446       -0.51303
C         -1.47162        1.06913       -0.37348
C         -1.20112       -0.41866       -0.26840
O         -1.73837       -1.02787        0.88871
H          0.55763       -2.59431       -0.68166
H          0.62228       -1.57545       -2.13277
H          2.02133       -1.65539       -1.03870
H          1.25054        1.50690        1.66163
H          2.61723        0.64409        0.89119
H          1.57247        1.13513       -1.32314
H         -0.32670        2.87574       -0.59931
H         -2.48149        1.46145       -0.32643
H         -1.63267       -0.96104       -1.11993
H         -1.10032       -0.83383        1.59176
