19

C	-3.592018	0.813721	0.131234
C	-2.923975	-0.543801	-0.154096
C	-1.468209	-0.495703	-0.071223
C	-0.267562	-0.443691	0.024317
C	1.199991	-0.35295	0.103329
C	1.864474	-1.606949	-0.494413
O	1.655259	-0.164178	1.42223
C	1.578584	0.876868	-0.737336
O	2.109101	1.840047	-0.246164
H	-3.338857	1.16728	1.134092
H	-3.261126	1.569066	-0.58658
H	-4.67985	0.723462	0.060441
H	-3.297748	-1.29465	0.553704
H	-3.217194	-0.898015	-1.150658
H	1.579913	-2.475954	0.102591
H	1.542167	-1.771707	-1.526444
H	2.952059	-1.497846	-0.461979
H	1.941615	0.76257	1.467336
H	1.316437	0.823876	-1.811909
