19
../xyz/dsC7O2H10nsd_4455.xyz
C          2.55724       -0.89926       -0.18646
C          1.26059       -0.33848        0.37270
O          1.29752        1.12745        0.22270
C          0.06087        1.68995       -0.26248
C         -0.86593        0.51374       -0.12846
C         -1.45902       -0.10276        1.16831
C         -1.44386       -1.15392        0.05201
O         -1.97701       -0.10433       -0.89075
C         -0.00524       -0.72043       -0.38093
H          3.41666       -0.43152        0.30103
H          2.60808       -1.97982       -0.01625
H          2.62862       -0.71068       -1.26185
H          1.20045       -0.55873        1.44541
H         -0.19462        2.55266        0.36074
H          0.15994        2.01289       -1.30738
H         -0.80823       -0.24150        2.03261
H         -2.44878        0.26665        1.43565
H         -1.92586       -2.12970       -0.00937
H          0.17176       -0.89828       -1.44436
