19

O	-3.426961	-0.442351	0.111311
C	-2.346727	-0.187071	-0.352557
C	-1.069217	-0.031486	0.437445
C	-0.416735	1.367856	0.195401
O	0.796458	1.146993	-0.508414
C	1.260028	-0.123165	-0.124753
C	2.604116	-0.532574	-0.610868
C	2.396488	-0.211033	0.863518
C	0.0316	-1.012021	-0.053096
H	-2.210407	-0.035125	-1.450974
H	-1.303054	-0.177367	1.493345
H	-1.034557	2.036281	-0.41322
H	-0.229889	1.856157	1.161301
H	2.75402	-1.567165	-0.900576
H	3.152228	0.189531	-1.205298
H	2.411934	-1.027806	1.577849
H	2.808759	0.724241	1.225144
H	-0.21147	-1.390228	-1.053809
H	0.14915	-1.868689	0.612524
