19
../xyz/dsC7O2H10nsd_1704.xyz
C         -0.61851        1.84543       -0.68736
C         -0.53252        0.45799       -0.05781
C         -0.56448        0.35736        1.48103
O          0.74068       -0.27039        1.51609
C          0.88125       -0.14426        0.10703
C          1.63419       -1.15438       -0.69555
C          2.17688        0.25870       -0.51815
C         -1.47056       -0.50287       -0.76088
O         -2.29451       -1.19516       -0.22251
H         -1.60736        2.28814       -0.52683
H          0.13134        2.51098       -0.25176
H         -0.44454        1.80287       -1.76874
H         -0.56621        1.31975        2.00525
H         -1.34519       -0.29600        1.87882
H          2.11301       -1.95086       -0.13622
H          1.26472       -1.44755       -1.67257
H          3.01712        0.39302        0.15467
H          2.16648        0.92694       -1.37336
H         -1.33619       -0.53067       -1.86774
