19

C	3.758749	0.67798	-0.331026
C	2.455218	0.140947	0.030305
C	1.373819	-0.294766	0.330607
C	0.072262	-0.849948	0.695238
C	-0.66358	-1.531634	-0.486239
O	-1.47019	-0.489777	-0.997042
C	-1.910614	0.221981	0.135124
C	-2.246372	1.649504	-0.233857
O	-0.845124	0.180643	1.083154
H	3.827692	1.742401	-0.081188
H	4.564344	0.160025	0.200869
H	3.948974	0.576442	-1.405115
H	0.189464	-1.545691	1.535373
H	0.004229	-1.882831	-1.272912
H	-1.277869	-2.368171	-0.118639
H	-2.784443	-0.291603	0.578621
H	-2.54657	2.201431	0.660236
H	-1.369798	2.129536	-0.674862
H	-3.070413	1.667147	-0.952187
