19

C	-3.860539	-0.570178	0.261448
C	-2.473673	-0.243327	-0.03386
C	-1.329196	0.034266	-0.287575
C	0.053772	0.36132	-0.584903
O	0.33513	1.790544	-0.550993
C	1.276753	1.636675	0.528709
C	1.107484	0.103762	0.531863
C	2.31629	-0.714124	0.105271
O	1.977652	-2.045805	-0.244955
H	-4.256897	-1.303655	-0.449207
H	-3.969135	-0.988062	1.268407
H	-4.49312	0.322467	0.203546
H	0.342377	-0.065785	-1.553784
H	2.276067	2.002046	0.257707
H	0.945943	2.151536	1.438679
H	0.673074	-0.299918	1.45058
H	2.761057	-0.276603	-0.795952
H	3.085578	-0.683006	0.894092
H	1.587454	-2.467299	0.527799
