19
../xyz/dsC7O2H10nsd_3539.xyz
C          2.72471       -0.11444        0.08872
C          1.36930        0.02892       -0.58405
O          0.70682        1.21194       -0.07828
C         -0.63255        1.00408        0.09547
O         -1.40078        1.90253        0.28914
C         -0.93586       -0.46437        0.00268
C         -2.31106       -0.87118       -0.45878
C         -0.15175       -1.27043        1.02717
C          0.38004       -1.10790       -0.36588
H          2.61610       -0.28061        1.16373
H          3.26453       -0.96423       -0.34070
H          3.32327        0.78729       -0.06430
H          1.51230        0.18105       -1.66223
H         -3.07114       -0.43460        0.19557
H         -2.50993       -0.52118       -1.47674
H         -2.42378       -1.95894       -0.44295
H          0.32930       -0.75350        1.85096
H         -0.57355       -2.23545        1.28645
H          0.42767       -1.96373       -1.02865
