19

O	2.363696	0.336298	-0.638331
C	1.323715	-0.03618	-0.179836
O	0.641932	-1.111585	-0.680203
C	-0.596845	-1.281346	0.060908
C	-0.255734	-0.699658	1.439519
C	0.503895	0.54805	0.973884
C	-0.504671	1.575101	0.401618
C	-1.275648	1.000679	-0.807101
C	-1.71179	-0.466995	-0.608706
H	-0.815642	-2.350383	0.06537
H	-1.141631	-0.478894	2.0399
H	0.389853	-1.380892	2.001815
H	1.157836	1.002107	1.718258
H	-1.197661	1.848633	1.206348
H	0.018032	2.489195	0.103911
H	-2.145392	1.62531	-1.031626
H	-0.628904	1.050725	-1.689521
H	-2.604015	-0.530928	0.026161
H	-1.975036	-0.910491	-1.574067
