19

C	-4.113099	0.001562	-0.209992
C	-2.677896	-0.004767	0.030646
C	-1.490826	-0.024666	0.226798
C	-0.054309	-0.003715	0.465388
C	0.628248	1.260842	-0.092751
C	2.142736	1.119802	0.076131
O	2.596882	-0.104802	-0.484272
C	1.923552	-1.194747	0.084499
O	0.537227	-1.162296	-0.135671
H	-4.40018	-0.818398	-0.877256
H	-4.675608	-0.116749	0.72251
H	-4.435065	0.938076	-0.678324
H	0.132205	-0.046152	1.554469
H	0.377894	1.351412	-1.153654
H	0.259096	2.150209	0.427902
H	2.681685	1.91947	-0.438117
H	2.409505	1.162187	1.146644
H	2.299619	-2.09641	-0.402263
H	2.127545	-1.232732	1.173323
