19
../xyz/dsC7O2H10nsd_0763.xyz
O          0.83579        2.04785       -0.26281
C          0.14414        1.07139       -0.07099
C         -1.32895        1.18646        0.30444
C         -2.15740       -0.02426       -0.14395
O         -1.54860       -1.23543        0.26439
C         -0.31331       -1.42755       -0.39702
C          0.69275       -0.32719       -0.09020
C          1.79611       -0.58021        0.93611
C          2.12615       -0.50566       -0.52172
H         -1.36354        1.24551        1.40059
H         -1.72411        2.12744       -0.08806
H         -3.15282       -0.00313        0.30754
H         -2.28455       -0.01471       -1.23969
H          0.06996       -2.40074       -0.07542
H         -0.48154       -1.47707       -1.48705
H          2.08723        0.25421        1.56416
H          1.79385       -1.54768        1.42751
H          2.62762        0.38498       -0.88151
H          2.37349       -1.42603       -1.04082
