19

C	-0.060456	2.278127	0.469369
C	0.310905	1.034972	-0.340841
O	1.658313	0.741112	0.002529
C	2.096616	-0.542035	-0.401579
C	1.328776	-1.631545	0.350777
C	-0.138332	-1.344654	0.270966
C	-0.613464	-0.141037	-0.07923
C	-2.075018	0.032018	-0.269223
O	-2.91073	-0.803042	-0.00446
H	-1.046093	2.66009	0.191189
H	-0.061075	2.045049	1.537702
H	0.677989	3.06246	0.284365
H	0.260404	1.288003	-1.417114
H	1.96204	-0.67486	-1.487424
H	3.16782	-0.581279	-0.186819
H	1.547153	-2.621245	-0.069434
H	1.651244	-1.665695	1.400687
H	-0.852274	-2.141174	0.464413
H	-2.382028	1.009012	-0.703558
