19

C	-2.263858	-1.430907	0.131997
C	-1.335325	-0.309754	-0.374516
C	-1.914131	1.007123	-0.12036
C	-2.393154	2.083592	0.120827
C	0.080564	-0.430323	0.256008
O	0.619629	-1.729875	0.057405
C	1.051627	0.643064	-0.250921
C	2.412961	0.496977	0.392589
O	3.452209	0.429883	-0.210074
H	-1.802031	-2.403296	-0.047555
H	-2.441639	-1.323851	1.206306
H	-3.229472	-1.389085	-0.377388
H	-1.2112	-0.427941	-1.461848
H	-2.820365	3.035445	0.319499
H	-0.027718	-0.335204	1.343701
H	0.914827	-1.799013	-0.858063
H	1.169308	0.589037	-1.339916
H	0.651354	1.634354	-0.003563
H	2.390134	0.460852	1.506441
