19
../xyz/dsC7O2H10nsd_2979.xyz
C          3.27033        0.43283       -0.33043
C          1.99305        0.03067        0.37411
C          1.03525       -0.85175       -0.36371
O         -0.03353       -1.28409        0.48837
C         -0.47365        0.09078        0.65645
C          0.70018        0.61204       -0.17074
C         -1.84281        0.38250        0.04134
C         -2.64329       -0.78989       -0.47257
O         -2.22433        1.52915       -0.00438
H          4.06066       -0.30634       -0.16409
H          3.11604        0.51871       -1.41163
H          3.63207        1.40195        0.02838
H          2.07212       -0.12134        1.44940
H          1.26845       -1.45500       -1.23417
H         -0.50043        0.38955        1.71314
H          0.65688        1.44152       -0.86312
H         -2.10617       -1.27729       -1.29288
H         -2.75041       -1.54908        0.30922
H         -3.62062       -0.44621       -0.81292
