19
../xyz/dsC7O2H10nsd_3547.xyz
C          1.31549        1.94394        0.38223
C          0.54277        0.90680       -0.41669
O         -0.87368        1.11749       -0.23233
C         -1.55450       -0.06814       -0.14002
O         -2.74692       -0.12643       -0.22228
C         -0.57148       -1.17153        0.07706
C          0.31506       -0.96935        1.29754
C          0.80393       -0.55859       -0.05812
C          1.96899       -1.25404       -0.71748
H          1.13483        1.83118        1.45445
H          2.38893        1.83619        0.19740
H          1.01656        2.95246        0.08538
H          0.74967        1.04522       -1.48727
H         -0.83861       -2.16856       -0.24625
H          0.02421       -0.21958        2.02596
H          0.74183       -1.86993        1.72534
H          1.99495       -2.31478       -0.45180
H          1.90860       -1.18177       -1.80903
H          2.92239       -0.81342       -0.40445
