19

C	-0.086185	2.172028	0.008892
C	0.281757	0.716852	0.017938
O	1.696128	0.53362	0.035426
C	1.832517	-0.901675	0.016897
C	0.371955	-1.32438	-0.0047
C	-0.304794	-0.3473	1.020071
C	-1.776834	-0.41541	0.641351
O	-1.683091	-0.374179	-0.8022
C	-0.278403	-0.320801	-1.007108
H	-1.163822	2.291787	-0.128362
H	0.208949	2.658239	0.943982
H	0.424253	2.682184	-0.813602
H	2.391263	-1.215582	-0.873655
H	2.37561	-1.240367	0.908054
H	0.130576	-2.386764	-0.029364
H	-0.032376	-0.340413	2.075758
H	-2.271251	-1.342354	0.957496
H	-2.364578	0.436102	1.004531
H	-0.042999	-0.294242	-2.070686
