19
../xyz/dsC7O2H10nsd_4061.xyz
O         -2.47076       -0.53639       -0.14082
C         -1.42855        0.16503        0.49794
C         -0.84230        1.36319       -0.32323
C          0.66706        1.13627       -0.25411
C          1.19839       -0.15766       -0.95460
C          2.18329       -0.33396        0.22052
C          0.98514        0.25475        1.00707
C         -0.18076       -0.70843        0.70259
O          0.18048       -1.13331       -0.64624
H         -2.05112       -0.99111       -0.88382
H         -1.83424        0.50496        1.45722
H         -1.23183        1.34020       -1.34538
H         -1.12227        2.32751        0.11055
H          1.31150        2.00437       -0.39248
H          1.46857       -0.22432       -2.00782
H          2.51686       -1.35117        0.43693
H          3.02720        0.35833        0.18552
H          1.06090        0.65590        2.01698
H         -0.31689       -1.58230        1.34180
