19
../xyz/dsC7O2H10nsd_2703.xyz
C         -0.29669        2.12207       -0.21384
C         -0.29463        0.68921        0.31183
C          0.76916       -0.27015       -0.26632
C          0.18400       -1.68184        0.01711
C         -1.32715       -1.52461       -0.20375
C         -1.62387       -0.05017        0.08330
O         -2.71135        0.46332        0.10988
C          2.12056       -0.07795        0.37615
O          3.14135        0.18830       -0.20152
H         -0.35765        2.13566       -1.30686
H         -1.16567        2.65755        0.17650
H          0.60989        2.65814        0.08025
H         -0.17080        0.70720        1.40871
H          0.87830       -0.10941       -1.34429
H          0.63964       -2.44536       -0.61648
H          0.38872       -1.95894        1.05893
H         -1.60185       -1.71467       -1.24873
H         -1.95229       -2.17661        0.41119
H          2.10336       -0.20596        1.48703
