19
../xyz/dsC7O2H10nsd_4290.xyz
O         -2.70217        0.74748       -0.15878
C         -1.46584        0.12639       -0.41779
C         -1.25496       -1.34833        0.03946
C          0.11524       -0.93308        0.61279
O          1.11812       -1.19091       -0.35492
C          2.26429       -0.36915       -0.21487
C          1.93486        1.10008       -0.14446
C          0.71685        1.52663        0.18434
C         -0.34229        0.54930        0.57285
H         -3.32799        0.47489       -0.83719
H         -1.14827        0.27304       -1.45746
H         -1.96321       -1.60240        0.83250
H         -1.23819       -2.13383       -0.71860
H          0.41047       -1.33783        1.59049
H          2.85515       -0.67160        0.66949
H          2.88634       -0.57682       -1.09291
H          2.73607        1.79418       -0.38307
H          0.47703        2.58670        0.19624
H         -0.82401        0.83016        1.51622
