19

O	-2.607224	0.071163	-0.470258
C	-1.715606	-0.476036	0.485187
C	-0.298498	-0.04284	0.212397
O	-0.249087	1.385505	0.246342
C	1.126276	1.66921	-0.051605
C	1.672382	0.259349	-0.207477
C	0.580646	-0.567608	-0.968682
C	0.96177	-1.802507	-0.121033
C	0.980263	-0.629103	0.886793
H	-2.398508	1.011829	-0.514924
H	-1.988546	-0.175524	1.509615
H	-1.806596	-1.563892	0.421272
H	1.200686	2.268483	-0.967629
H	1.581472	2.228784	0.774812
H	2.727817	0.112667	-0.437309
H	0.346119	-0.51953	-2.03215
H	0.200277	-2.573849	0.01658
H	1.931257	-2.253892	-0.344867
H	1.213115	-0.651206	1.952458
