19

C	0.538702	1.941469	-0.603208
C	0.284356	0.76204	0.351826
C	1.439152	-0.239467	0.250026
O	2.560534	-0.110326	0.64643
O	1.027206	-1.356563	-0.412485
C	-0.341454	-1.232411	-0.830933
C	-0.919641	-0.102818	0.009593
C	-1.998553	-0.390097	1.022379
C	-2.30885	0.41519	-0.217832
H	-0.260691	2.682988	-0.519837
H	1.48846	2.423797	-0.358192
H	0.583924	1.610991	-1.645999
H	0.249994	1.135383	1.378848
H	-0.35617	-1.008032	-1.905227
H	-0.835704	-2.193846	-0.668665
H	-2.3861	-1.401854	1.086342
H	-1.956773	0.132783	1.972304
H	-2.907589	-0.050744	-0.994609
H	-2.483538	1.48021	-0.107641
