19
../xyz/dsC7O2H10nsd_0023.xyz
C          3.03928       -0.10978        0.66155
C          2.10461        0.34651       -0.47299
C          0.68293       -0.04743       -0.27650
C         -0.47502        0.64791       -0.08549
O         -0.69045        1.99323       -0.02538
C         -1.54563       -0.30052        0.05570
C         -2.98939        0.01585        0.27892
C         -0.94472       -1.51366       -0.06042
O          0.39309       -1.39056       -0.26057
H          3.00592       -1.19737        0.76818
H          4.07397        0.18245        0.45703
H          2.73860        0.32982        1.61742
H          2.15034        1.43916       -0.57160
H          2.47335       -0.05348       -1.42730
H          0.14594        2.45288       -0.15015
H         -3.58653       -0.89762        0.34552
H         -3.13550        0.58435        1.20416
H         -3.39466        0.62709       -0.53514
H         -1.32502       -2.52187       -0.02524
