19
../xyz/dsC7O2H10nsd_1333.xyz
C         -1.44902        1.89278        0.21587
C         -0.98112        0.54065       -0.34575
C         -1.92125       -0.57768        0.08982
O         -2.14839       -1.56582       -0.55782
C          0.43691        0.21981        0.07562
C          0.85324       -0.50207        1.34950
C          1.27706       -1.03442        0.01388
O          2.43332       -0.33986       -0.45924
C          1.68074        0.90055       -0.50347
H         -0.78673        2.69976       -0.11016
H         -2.46186        2.13415       -0.12205
H         -1.44747        1.88200        1.31100
H         -1.01368        0.55578       -1.44226
H         -2.39552       -0.42553        1.08805
H          1.59908       -0.07402        2.01407
H          0.06664       -1.06275        1.84546
H          1.08322       -2.03146       -0.36346
H          2.15171        1.69819        0.08345
H          1.54580        1.23163       -1.54043
