19

O	-2.605143	-0.802096	-0.328717
C	-1.88957	0.38584	-0.203902
C	-1.262369	0.76835	1.128193
C	-0.405781	0.31017	-0.032566
C	0.640314	1.173002	-0.737078
C	1.915462	0.35563	-0.588245
C	2.266827	-0.129535	0.809471
C	1.471252	-1.001184	-0.124222
O	0.072434	-1.026727	0.030243
H	-1.951615	-1.510614	-0.395943
H	-2.296691	1.184802	-0.819572
H	-1.239825	1.816075	1.413379
H	-1.393768	0.060256	1.939498
H	0.401708	1.293879	-1.800167
H	0.703927	2.170385	-0.291881
H	2.705337	0.480582	-1.319078
H	3.299116	-0.409	0.990729
H	1.759702	0.3114	1.660828
H	1.856968	-1.940835	-0.499907
