19

C	3.07	0.773692	-0.320541
C	2.296613	-0.485837	0.084789
C	0.824773	-0.413554	-0.266547
C	-0.18102	-1.214424	0.498228
C	-1.506801	-1.466839	-0.201687
O	-2.034998	-0.178098	-0.555083
C	-1.363602	0.836194	0.079379
O	-1.769808	1.96169	0.080924
C	-0.123674	0.28274	0.7024
H	4.129169	0.685055	-0.061322
H	3.003499	0.9461	-1.399974
H	2.671029	1.661064	0.180967
H	2.735108	-1.363295	-0.407856
H	2.402554	-0.656918	1.163618
H	0.618464	-0.258685	-1.324693
H	0.146387	-1.907823	1.263699
H	-1.410221	-2.053474	-1.120811
H	-2.223379	-1.966234	0.460447
H	0.268098	0.773637	1.583068
