19
../xyz/dsC7O2H10nsd_5790.xyz
O         -2.86069       -0.28415        0.18473
C         -1.76832        0.55778        0.49607
C         -0.68702        0.46924       -0.57995
O         -0.31019       -0.91272       -0.77014
C          1.05763       -1.04912       -0.40030
C          1.27715       -0.78676        1.12309
C          1.57867        0.67083        0.76331
C          1.75535        0.30182       -0.70505
C          0.62173        1.19283       -0.30320
H         -2.47208       -1.14020       -0.03378
H         -2.15475        1.58257        0.54265
H         -1.34074        0.32022        1.48184
H         -1.12211        0.81839       -1.52668
H          1.43951       -1.97678       -0.82387
H          0.44057       -1.02128        1.78780
H          2.17913       -1.29026        1.48414
H          2.16834        1.36340        1.35248
H          2.53301        0.52717       -1.42140
H          0.68502        2.25207       -0.52368
