19

O	4.197394	0.370191	-0.152263
C	3.080038	-0.447066	0.151386
C	1.748744	0.186271	-0.254814
C	0.539131	-0.672232	0.13999
C	-0.766602	-0.04192	-0.276578
O	-1.223694	1.067369	0.495429
C	-1.992423	-0.148688	0.543016
C	-3.305786	-0.127338	-0.042469
C	-4.410109	-0.127611	-0.516994
H	4.22323	0.49141	-1.106787
H	3.176079	-1.445426	-0.307802
H	3.108529	-0.592405	1.237269
H	1.666867	1.174541	0.210352
H	1.744091	0.346625	-1.342956
H	0.613381	-1.665164	-0.323861
H	0.5304	-0.824335	1.225799
H	-0.909541	0.087177	-1.351073
H	-1.916131	-0.678994	1.492047
H	-5.384462	-0.122405	-0.939548
