19

C	-0.462759	2.36589	0.180469
O	-0.921722	1.281767	-0.605106
C	-0.525841	0.006191	-0.14628
C	-1.297471	-1.087859	-0.926826
O	-1.973303	-1.538006	0.260519
C	-1.339185	-0.536075	1.073431
C	0.92163	-0.15454	-0.068327
C	2.116371	-0.296849	-0.004555
C	3.559382	-0.473449	0.06712
H	-0.856341	3.273461	-0.281937
H	-0.832935	2.306968	1.214721
H	0.633209	2.414215	0.203198
H	-1.982255	-0.660979	-1.667966
H	-0.683023	-1.872106	-1.379903
H	-2.056259	0.191265	1.473886
H	-0.750998	-0.973031	1.887262
H	3.82628	-1.535844	0.057555
H	4.059356	0.001933	-0.783691
H	3.970405	-0.03583	0.983383
