19

C	2.476119	-0.854899	-0.112917
C	1.126367	-0.220565	-0.041639
O	0.020329	-1.083664	-0.258545
C	-1.042531	-0.152634	-0.039687
C	-2.390343	-0.811215	-0.031284
C	-0.703135	0.981999	-1.041324
C	0.715491	1.16834	-0.53283
C	0.618817	0.800675	0.947571
O	-0.719461	0.442762	1.22314
H	3.252283	-0.121607	0.12444
H	2.553717	-1.680944	0.601085
H	2.674926	-1.24749	-1.115564
H	-3.16685	-0.070486	0.172914
H	-2.587179	-1.27343	-1.001281
H	-2.422116	-1.581457	0.74245
H	-0.755593	0.637428	-2.076456
H	-1.340692	1.857362	-0.89794
H	1.417948	1.891881	-0.92248
H	1.161898	1.245752	1.768738
