19

C	-2.560394	-0.465045	-0.495724
O	-1.684968	-0.160315	0.580829
C	-0.36078	-0.143709	0.221438
C	0.479157	-1.429312	0.106911
C	1.725759	-1.095696	-0.711687
C	1.680427	0.282322	0.001384
C	0.803099	-0.371851	1.150095
C	0.381963	0.957044	-0.542296
O	0.130977	2.253646	-0.053811
H	-2.338317	-1.452265	-0.923075
H	-3.573855	-0.46626	-0.089437
H	-2.495208	0.287809	-1.292267
H	0.012	-2.390292	0.285
H	2.58554	-1.695633	-0.399274
H	1.658085	-1.096434	-1.806393
H	2.567225	0.89597	0.142954
H	0.879646	-0.431365	2.225571
H	0.285235	1.018346	-1.632207
H	-0.043819	2.180955	0.892254
