19
../xyz/dsC7O2H10nsd_2561.xyz
C          2.70515        0.03873        0.00001
C          1.21560        0.17370        0.00002
C          0.50041        1.30190       -0.00018
C         -0.98803        1.04810       -0.00019
O         -1.35208        0.31024        1.16168
C         -0.62120       -0.91628        1.23378
C          0.30096       -1.03507        0.00017
C         -0.62111       -0.91665       -1.23353
O         -1.35205        0.30985       -1.16179
H          3.05375       -0.51894        0.87864
H          3.05387       -0.51727       -0.87965
H          3.19535        1.01615        0.00094
H          0.90850        2.30620       -0.00027
H         -1.60278        1.94718       -0.00034
H         -0.04177       -0.93839        2.16585
H         -1.33905       -1.74720        1.25037
H          0.83513       -1.98841        0.00034
H         -0.04161       -0.93898       -2.16555
H         -1.33893       -1.74760       -1.24997
