19

C	-0.192185	1.507989	-0.500241
C	-0.850495	0.230083	-1.053279
C	-1.861441	-0.034554	0.085969
C	-0.726007	-0.276294	1.088919
O	-0.129689	-1.43965	0.479261
C	0.216194	-0.919066	-0.799311
O	1.532723	-0.408681	-0.715552
C	1.663254	0.299549	0.530165
C	0.290933	0.915679	0.853629
H	0.638049	1.876041	-1.105118
H	-0.924803	2.311361	-0.387929
H	-1.229088	0.273512	-2.074336
H	-2.500521	0.82843	0.289726
H	-2.47218	-0.931354	-0.029694
H	-0.966497	-0.506656	2.126132
H	0.222703	-1.717719	-1.541748
H	2.004592	-0.381591	1.318107
H	2.422156	1.072559	0.375934
H	0.339802	1.621747	1.68415
