19
../xyz/dsC7O2H10nsd_0571.xyz
C         -2.32028        0.06804        0.26473
C         -1.30810        1.23220        0.32979
C          0.00000        0.54769        0.00000
C          1.30810        1.23220       -0.32979
C          2.32028        0.06804       -0.26473
O          1.77133       -0.92229        0.61113
C          0.37629       -0.76933        0.65390
C         -0.37629       -0.76933       -0.65389
O         -1.77133       -0.92229       -0.61113
H         -2.47468       -0.36230        1.26385
H         -3.29709        0.36012       -0.13071
H         -1.52896        1.99241       -0.42843
H         -1.31969        1.72178        1.30889
H          1.31970        1.72178       -1.30889
H          1.52896        1.99241        0.42842
H          2.47469       -0.36230       -1.26385
H          3.29709        0.36013        0.13071
H         -0.05971       -1.16222        1.56652
H          0.05971       -1.16222       -1.56651
