19
../xyz/dsC7O2H10nsd_1349.xyz
C         -1.89432       -1.55902        0.03157
C         -1.16232       -0.28066        0.47621
C         -1.37949        0.81311       -0.55329
O         -2.01273        1.81991       -0.36055
C          0.34459       -0.55315        0.68932
O          0.94352       -1.02392       -0.52298
C          2.10511       -0.25636       -0.83924
C          2.15460        0.82260        0.20471
C          1.16322        0.65309        1.07116
H         -1.49541       -1.92180       -0.91965
H         -1.75891       -2.35058        0.77560
H         -2.96692       -1.37888       -0.08305
H         -1.58090        0.08043        1.42249
H         -0.91846        0.60404       -1.54419
H          0.42276       -1.34294        1.45725
H          2.99891       -0.90011       -0.81731
H          2.01662        0.14170       -1.86128
H          2.90786        1.59983        0.21860
H          0.93987        1.26271        1.93714
