19
../xyz/dsC7O2H10nsd_4065.xyz
C         -2.44978        0.71046        0.37778
C         -1.14531        0.02760        0.13143
O         -0.68858       -0.07224       -1.23628
C         -0.77123       -1.27865       -0.45168
C          0.50063       -1.37224        0.42395
C          1.79740       -0.76381       -0.17660
C          1.42621        0.63408        0.43472
O          1.30926        1.73145       -0.42646
C          0.11644        0.01587        1.03665
H         -3.19049        0.40136       -0.36468
H         -2.82827        0.47020        1.37634
H         -2.33120        1.79805        0.31580
H         -1.37368       -2.07572       -0.87524
H          0.57124       -2.26583        1.04271
H          2.71524       -1.19195        0.23334
H          1.85815       -0.77133       -1.26695
H          2.12409        0.93481        1.22112
H          0.72462        1.44221       -1.13933
H         -0.08131        0.14453        2.10128
