19
../xyz/dsC7O2H10nsd_1144.xyz
C         -2.44934       -1.11387       -0.18790
C         -1.73226        0.18818        0.08723
O         -2.30085        1.25440        0.14424
C         -0.22104        0.11954        0.33429
C          0.52349        1.34743       -0.19986
C          2.00773        1.10577       -0.13799
C          2.51218       -0.11316        0.03651
C          1.63596       -1.33103        0.13239
O          0.28891       -1.07689       -0.23036
H         -2.24150       -1.84009        0.60479
H         -3.52120       -0.92958       -0.26619
H         -2.06745       -1.55691       -1.11271
H         -0.09801        0.08677        1.43399
H          0.20485        1.55867       -1.22929
H          0.23908        2.22547        0.38792
H          2.66439        1.96615       -0.23399
H          3.58320       -0.27906        0.11456
H          1.98761       -2.11335       -0.55067
H          1.68417       -1.75534        1.15251
