19
../xyz/dsC7O2H10nsd_3400.xyz
C          3.06158       -0.28861       -0.06361
C          1.61334       -0.04118       -0.41865
C          0.71348        0.76277        0.47754
O         -0.20942        1.60326       -0.14852
C         -1.56706        1.21369        0.05467
C         -1.83093       -0.18998       -0.46852
O         -1.91256       -1.23847        0.50041
C         -0.74346       -1.17622       -0.32644
C          0.50653       -0.73270        0.35594
H          3.43228       -1.21087       -0.52403
H          3.69728        0.53626       -0.40273
H          3.19237       -0.38596        1.01933
H          1.40967        0.11360       -1.47521
H          1.11231        1.15671        1.41211
H         -1.83613        1.25868        1.11904
H         -2.16443        1.95051       -0.48821
H         -2.53489       -0.28964       -1.29343
H         -0.66716       -1.98974       -1.04751
H          0.81364       -1.34451        1.19999
