19
../xyz/dsC7O2H10nsd_5596.xyz
C         -2.79496       -0.54485        0.21690
O         -1.75231        0.06901       -0.51370
C         -0.52054       -0.56735       -0.35967
C          0.31574       -0.31822        0.95735
C          0.32208        1.22738        1.01914
C          0.59368        1.56281       -0.49291
C          0.67220        0.13121       -1.07703
C          1.50867       -0.55885        0.01697
O          2.55934       -1.12489        0.07718
H         -2.60731       -0.51696        1.29986
H         -3.71029        0.01016        0.00017
H         -2.93387       -1.59404       -0.08429
H         -0.59084       -1.63695       -0.60123
H          0.17370       -0.88311        1.87602
H         -0.63987        1.61934        1.35445
H          1.10112        1.60594        1.68485
H         -0.22495        2.12860       -0.93896
H          1.52511        2.11333       -0.64401
H          0.86980        0.00796       -2.13924
