19

C	-2.365739	0.125011	-0.461837
C	-0.930647	0.036035	-0.005467
C	-0.564426	-0.685527	1.329716
C	0.723008	-1.155352	0.631487
C	1.602389	0.024999	0.07857
C	0.979141	1.372241	0.407508
O	-0.384246	1.350005	-0.014741
O	1.213726	-0.274987	-1.29492
C	0.080374	-0.956405	-0.753049
H	-2.814628	-0.871186	-0.51818
H	-2.955656	0.73299	0.2313
H	-2.417337	0.588451	-1.451834
H	-0.502643	-0.062135	2.22569
H	-1.227919	-1.532466	1.528834
H	1.259279	-2.052448	0.93959
H	2.684094	-0.011717	0.228947
H	1.061129	1.593561	1.483228
H	1.474216	2.174538	-0.148545
H	-0.340967	-1.725734	-1.403322
