19

C	2.340734	-1.679533	-0.116513
C	1.550791	-0.467408	0.37855
O	0.272409	-0.527898	-0.237275
C	-0.65938	0.418207	0.252718
C	-1.95903	0.212943	-0.472828
C	-3.237005	0.603957	0.131825
O	-2.852796	-0.767872	0.056005
C	2.247452	0.794392	0.084993
C	2.818063	1.823624	-0.161058
H	2.463932	-1.627093	-1.200791
H	3.328346	-1.706483	0.350018
H	1.797164	-2.593536	0.134269
H	1.427622	-0.541576	1.472764
H	-0.81871	0.286925	1.334924
H	-0.294647	1.443033	0.081824
H	-1.876271	0.204454	-1.559835
H	-3.252186	1.030734	1.134471
H	-4.066649	0.900352	-0.508202
H	3.324748	2.732261	-0.375405
