19
../xyz/dsC7O2H10nsd_4929.xyz
C         -2.25040        0.81325       -0.62044
C         -1.27232       -0.34096       -0.54518
O         -1.53842       -1.22791        0.56534
C         -0.29549       -0.89796        1.21084
C          0.17624       -0.06837       -0.01444
C          1.25527       -0.78614       -0.84645
O          2.50469       -0.82214       -0.19309
C          0.57294        1.30434        0.23617
C          0.95826        2.42764        0.43367
H         -1.99962        1.47515       -1.45585
H         -3.26147        0.42547       -0.77758
H         -2.24211        1.40175        0.30074
H         -1.27135       -0.89861       -1.49235
H         -0.44705       -0.31735        2.12767
H          0.31690       -1.77878        1.43107
H          0.95238       -1.82776       -0.99337
H          1.32086       -0.30829       -1.83669
H          2.76390        0.09165       -0.02329
H          1.27044        3.42645        0.61660
