19

O	-2.621359	-0.593035	-0.226898
C	-1.330666	-1.009901	-0.682308
C	-0.206427	-0.225432	-0.034894
C	-0.257456	1.273569	-0.287495
O	-1.357742	1.895003	0.351974
C	0.315034	-0.709306	1.291103
C	1.147687	-0.92684	0.035617
C	2.376496	-0.216007	-0.167145
C	3.41629	0.362581	-0.344485
H	-2.659617	-0.760443	0.721955
H	-1.192277	-2.089087	-0.519145
H	-1.341629	-0.837271	-1.763907
H	0.646414	1.750387	0.100604
H	-0.273565	1.45024	-1.376289
H	-2.141887	1.401395	0.077291
H	0.665385	0.036224	1.995231
H	-0.124818	-1.591655	1.746263
H	1.157278	-1.945145	-0.345883
H	4.331782	0.87762	-0.499084
