19
../xyz/dsC7O2H10nsd_0530.xyz
C          2.10154        0.35345       -0.39965
C          1.78190       -0.75187        0.69306
C          0.28411       -0.46801        0.36750
C         -0.31811       -1.32305       -0.77706
O         -1.64598       -1.21785       -0.22450
C         -1.20544       -0.27782        0.76621
C         -1.44078        1.18887        0.25712
O         -0.36367        1.53761       -0.65014
C          0.71980        0.92115        0.01076
H          2.97836        0.98719       -0.25874
H          2.11476       -0.08274       -1.40054
H          2.13318       -1.76591        0.49589
H          2.09989       -0.44011        1.69016
H         -0.25663       -0.90625       -1.78940
H          0.02540       -2.36524       -0.78354
H         -1.63445       -0.46522        1.75422
H         -2.38377        1.27338       -0.28527
H         -1.43901        1.88446        1.11065
H          0.90137        1.46607        0.95606
