19
../xyz/dsC7O2H10nsd_5059.xyz
C          1.10906        2.04478       -0.32474
C          0.85681        0.61414        0.06842
C          2.00510       -0.40019        0.00829
C          1.30073       -1.73018       -0.15275
C         -0.02341       -1.58933       -0.23146
C         -0.40283       -0.14775       -0.09942
C         -1.72315        0.36499       -0.60326
O         -2.79640       -0.16891        0.15806
O         -0.00587        0.40167        1.19725
H          1.85881        2.49222        0.33746
H          1.48945        2.10613       -1.34965
H          0.19874        2.64295       -0.25050
H          2.67844       -0.18778       -0.83253
H          2.61386       -0.35996        0.91996
H          1.83694       -2.67231       -0.16636
H         -0.75527       -2.37910       -0.34269
H         -1.73118        1.46364       -0.59197
H         -1.88786        0.03589       -1.63484
H         -2.61769        0.05746        1.07821
