19
../xyz/dsC7O2H10nsd_5893.xyz
C          3.72834       -1.32119       -0.22037
C          2.69548       -0.31709       -0.00742
C          1.84828        0.51949        0.17322
C          0.82227        1.53196        0.37795
C         -0.61046        1.13400       -0.03251
O         -1.36287        1.97055       -0.47311
C         -1.03065       -0.30501        0.18839
C         -2.50844       -0.55715       -0.11178
O         -2.89169       -1.89277        0.17678
H          3.60086       -1.82827       -1.18308
H          4.72582       -0.86821       -0.21556
H          3.70870       -2.08607        0.56365
H          0.76533        1.79584        1.44523
H          1.05582        2.46004       -0.15369
H         -0.38571       -0.94042       -0.43417
H         -0.79604       -0.59318        1.22171
H         -3.12987        0.08057        0.52265
H         -2.73157       -0.28130       -1.15122
H         -2.44582       -2.47141       -0.44964
