19

O	-2.734529	-1.181814	-0.221919
C	-1.351854	-1.050288	-0.504896
C	-0.60818	-0.175235	0.52187
C	-1.135016	1.284829	0.55291
C	-0.129154	2.108903	-0.294158
C	1.093985	1.236582	-0.324433
C	0.852192	0.001293	0.140177
C	1.865947	-1.063637	0.236321
O	3.02447	-0.95054	-0.099038
H	-2.823534	-1.649697	0.614834
H	-0.863359	-2.034738	-0.583775
H	-1.29414	-0.583541	-1.494552
H	-0.7129	-0.657796	1.504232
H	-2.162727	1.344244	0.188615
H	-1.132284	1.656399	1.581789
H	-0.489197	2.29359	-1.316398
H	0.07417	3.098046	0.131361
H	2.061572	1.560003	-0.691944
H	1.49536	-2.022365	0.666741
