19
../xyz/dsC7O2H10nsd_3980.xyz
C         -3.16862       -0.26034       -0.32181
C         -1.66610       -0.10609       -0.47912
C         -1.08752        1.26743       -0.05158
C          0.24643        0.91076        0.58177
C          0.19101       -0.55358        0.80500
O         -1.00979       -1.08704        0.34855
C          1.17315        0.00413       -0.24232
C          2.60685       -0.01504        0.10053
O          3.50375       -0.22701       -0.67936
H         -3.69361        0.44608       -0.97243
H         -3.48042       -1.27260       -0.59270
H         -3.46788       -0.07196        0.71368
H         -1.39135       -0.30404       -1.52479
H         -1.00868        1.95180       -0.90062
H         -1.72764        1.73828        0.70308
H          0.69940        1.58885        1.29605
H          0.57390       -1.06449        1.68039
H          0.95257       -0.16366       -1.29082
H          2.82086        0.18045        1.17976
