19

C	1.950419	-1.361604	0.412865
C	0.722598	-0.64521	-0.125141
C	-0.276846	-1.463893	-0.901146
C	-0.625902	-1.013654	0.492277
C	-1.759825	-0.048304	0.676848
O	-2.592416	0.200032	-0.156646
C	1.023607	0.76762	-0.538707
C	1.114813	1.865289	0.435149
O	0.000107	1.753422	-0.454356
H	1.723459	-2.403271	0.65727
H	2.754627	-1.364305	-0.332232
H	2.335139	-0.874873	1.315589
H	-0.842775	-0.970444	-1.684388
H	-0.055514	-2.510506	-1.079781
H	-0.55355	-1.726128	1.312071
H	-1.8215	0.395234	1.696187
H	1.636153	0.847687	-1.439682
H	0.891437	1.669721	1.482895
H	1.777801	2.707787	0.247219
