19
../xyz/dsC7O2H10nsd_1552.xyz
C         -0.28370       -1.86269       -0.67497
C         -0.68071       -0.58789        0.05940
O         -1.27416       -0.87917        1.31279
C         -1.59694        0.36562       -0.77379
C         -0.51572        1.45058       -0.74484
C         -0.16766        1.80163        0.65016
C          0.41091        0.51109        0.08318
C          1.86149        0.35773       -0.03261
O          2.46824       -0.68603        0.06352
H         -1.16680       -2.49754       -0.79644
H          0.12967       -1.64007       -1.66287
H          0.48377       -2.40936       -0.12082
H         -0.66419       -1.44018        1.80522
H         -1.80375       -0.02537       -1.77157
H         -2.53732        0.63176       -0.28454
H         -0.21288        2.06052       -1.58698
H          0.55222        2.60357        0.78243
H         -0.90074        1.70486        1.44513
H          2.40136        1.31710       -0.21922
