19
../xyz/dsC7O2H10nsd_4893.xyz
C          0.27269        2.34441       -0.02421
O         -0.03740        1.17917       -0.76294
C         -0.38825        0.05353       -0.00624
C          0.71345       -0.42192        0.96252
C          1.98171       -0.69547        0.30039
C          3.02248       -0.91971       -0.25689
C         -0.96231       -1.06801       -0.89100
O         -2.13038       -1.17938       -0.04781
C         -1.80142        0.04252        0.64159
H          1.22589        2.25494        0.51359
H          0.35816        3.15900       -0.74661
H         -0.51951        2.59694        0.69624
H          0.85597        0.32306        1.75530
H          0.34648       -1.32719        1.46112
H          3.94313       -1.11856       -0.74711
H         -1.20765       -0.71307       -1.89886
H         -0.39708       -2.00352       -0.94885
H         -2.42450        0.88529        0.31401
H         -1.86865       -0.06737        1.73023
