19
../xyz/dsC7O2H10nsd_4588.xyz
C          3.60505       -0.88916       -0.03478
C          3.04624        0.53115        0.16484
C          1.59559        0.60816        0.06310
C          0.39077        0.67699       -0.01442
C         -1.05233        0.79165       -0.12812
O         -1.61936        1.86147       -0.07634
C         -1.81022       -0.52675       -0.37214
C         -3.12645       -0.55326        0.39466
O         -1.06046       -1.66989       -0.01387
H          3.20095       -1.57544        0.71400
H          3.34716       -1.27374       -1.02522
H          4.69451       -0.88159        0.05703
H          3.34453        0.91631        1.14843
H          3.48759        1.21623       -0.57025
H         -2.02907       -0.52709       -1.45663
H         -3.70576        0.34349        0.16936
H         -3.70158       -1.43951        0.11663
H         -2.93133       -0.58899        1.47022
H         -0.16039       -1.55494       -0.34075
