19

C	1.704813	0.393715	-0.642447
O	1.364016	-1.001976	-0.670708
C	0.313249	-1.212691	0.277964
C	0.568857	-0.167499	1.365439
C	0.83334	1.04753	0.454071
C	-0.499976	1.579198	-0.108323
C	-1.400082	0.4627	-0.621753
O	-2.056045	-0.353117	0.362542
C	-1.015795	-0.943866	-0.421175
H	2.774078	0.482413	-0.41263
H	1.532828	0.836535	-1.631642
H	0.382963	-2.248532	0.620435
H	-0.278517	-0.031723	2.037649
H	1.456438	-0.439925	1.943097
H	1.373873	1.852974	0.957458
H	-1.04106	2.144312	0.660321
H	-0.303187	2.276511	-0.931304
H	-2.041613	0.711929	-1.466469
H	-1.346007	-1.698277	-1.134236
