19
../xyz/dsC7O2H10nsd_2483.xyz
C          0.56708        1.91423        0.37344
C         -0.16490        0.66052       -0.00344
O         -1.43629        0.91465       -0.53171
C         -2.24562       -0.25973       -0.40576
C         -1.61118       -1.11940        0.71011
C         -0.17519       -0.62930        0.72401
C          0.55618       -0.58469       -0.62323
C          2.02606       -0.65843       -0.61615
O          2.73099       -0.42053        0.34257
H          1.56389        1.67826        0.74634
H          0.65617        2.57937       -0.49082
H          0.01066        2.44442        1.15274
H         -3.26727        0.06014       -0.18490
H         -2.26196       -0.80186       -1.36047
H         -2.07142       -0.91189        1.68173
H         -1.71671       -2.18937        0.51015
H          0.46041       -0.78422        1.58821
H          0.07455       -1.01498       -1.49516
H          2.47951       -0.95192       -1.58859
