19
../xyz/dsC7O2H10nsd_2781.xyz
C         -2.95654       -0.21571        0.08444
C         -1.48762       -0.06948        0.41638
C         -0.46704       -0.88365       -0.30830
C         -0.57494        0.60149       -0.61264
C          0.64566        1.25727       -0.05272
O          1.03257        2.37352       -0.29138
C          1.35254        0.23834        0.85889
C          0.87113       -1.14238        0.39030
O          1.84592       -1.61904       -0.53021
H         -3.10156       -0.44539       -0.97597
H         -3.40986       -1.02485        0.66740
H         -3.50502        0.70561        0.30536
H         -1.28876        0.16021        1.46083
H         -0.81031       -1.62153       -1.02796
H         -1.01792        1.00576       -1.51419
H          2.43606        0.32920        0.77183
H          1.08471        0.43697        1.90216
H          0.75742       -1.84838        1.22635
H          1.52820       -2.44873       -0.90115
