19
../xyz/dsC7O2H10nsd_1727.xyz
C          0.64946       -0.34783        1.72149
C          0.59708       -0.06159        0.20862
C         -0.13464        1.27175       -0.08502
O         -1.50723        1.17698        0.24166
C         -2.13557        0.16443       -0.53184
C         -1.47511       -1.18092       -0.26413
O         -0.07453       -1.11923       -0.50207
C          1.95180        0.00979       -0.34017
C          3.06703        0.12210       -0.77212
H         -0.34182       -0.24452        2.16779
H          1.02372       -1.35951        1.89311
H          1.32054        0.36145        2.21274
H          0.28603        2.07972        0.51887
H         -0.00572        1.51555       -1.15010
H         -3.19048        0.14946       -0.24241
H         -2.06439        0.41062       -1.60369
H         -1.68741       -1.50005        0.76663
H         -1.85999       -1.94760       -0.94375
H          4.05334        0.20647       -1.15696
