19
../xyz/dsC7O2H10nsd_1659.xyz
C          1.95042       -1.36160        0.41286
C          0.72260       -0.64521       -0.12514
C         -0.27685       -1.46389       -0.90115
C         -0.62590       -1.01365        0.49228
C         -1.75982       -0.04830        0.67685
O         -2.59242        0.20003       -0.15665
C          1.02361        0.76762       -0.53871
C          1.11481        1.86529        0.43515
O          0.00011        1.75342       -0.45436
H          1.72346       -2.40327        0.65727
H          2.75463       -1.36431       -0.33223
H          2.33514       -0.87487        1.31559
H         -0.84278       -0.97044       -1.68439
H         -0.05551       -2.51051       -1.07978
H         -0.55355       -1.72613        1.31207
H         -1.82150        0.39523        1.69619
H          1.63615        0.84769       -1.43968
H          0.89144        1.66972        1.48290
H          1.77780        2.70779        0.24722
