19
../xyz/dsC7O2H10nsd_1020.xyz
C          3.50881       -0.26484        0.06676
C          2.08517        0.03479        0.02352
C          0.91268        0.31429       -0.00509
C         -0.50783        0.57827       -0.05361
C         -0.99804        1.86724       -0.57624
O         -1.00655        1.60248        0.82597
C         -1.39404       -0.66705       -0.14739
C         -1.34186       -1.49606        1.13504
O         -1.05508       -1.42525       -1.29744
H          3.70562       -1.19455        0.61120
H          3.92409       -0.37178       -0.94126
H          4.05901        0.53777        0.56952
H         -0.28055        2.61639       -0.90507
H         -1.97460        1.90293       -1.05747
H         -2.41981       -0.32256       -0.31522
H         -1.98879       -2.37155        1.03710
H         -0.32018       -1.83830        1.33309
H         -1.67403       -0.90077        1.99064
H         -0.12699       -1.67526       -1.20870
