19

C	-1.327917	1.879602	0.459069
C	-0.797472	0.750257	-0.398906
O	-1.841761	-0.160553	-0.867565
C	-1.091306	-1.283682	-0.414935
C	-0.93259	-1.267354	1.07034
C	-0.0106	-0.421068	0.207889
C	1.463073	-0.556385	0.214478
C	2.36883	0.5866	0.406665
O	2.176164	0.017128	-0.889316
H	-0.515034	2.55557	0.745571
H	-2.065082	2.460298	-0.104481
H	-1.809164	1.507703	1.36741
H	-0.256368	1.139826	-1.269104
H	-1.046792	-2.161343	-1.049388
H	-1.696397	-0.812839	1.694162
H	-0.455553	-2.145006	1.497755
H	1.829943	-1.53995	0.513308
H	1.954553	1.584525	0.544378
H	3.352556	0.430797	0.847842
