19

O	3.57325	-5e-06	0.054023
C	2.377938	-1e-06	0.0324
C	1.313268	1.107236	-0.034154
C	0.257965	6e-06	-0.365028
C	1.313261	-1.107232	-0.034161
C	-1.025051	6e-06	0.439111
C	-2.110036	-1.036547	0.058388
O	-3.067713	-7e-06	-0.233045
C	-2.110046	1.036545	0.058379
H	1.158459	1.572866	0.946449
H	1.484811	1.898042	-0.768551
H	0.023669	1e-05	-1.434529
H	1.158449	-1.572874	0.946435
H	1.484801	-1.89803	-0.768568
H	-0.793183	1.2e-05	1.509185
H	-1.880159	-1.645565	-0.826788
H	-2.452371	-1.698567	0.862877
H	-1.880175	1.645558	-0.826802
H	-2.452388	1.698568	0.862862
