19
../xyz/dsC7O2H10nsd_5178.xyz
O          2.72819       -0.84811       -0.23320
C          2.15885        0.39369        0.17167
C          0.67246        0.26229        0.15345
C         -0.16177       -0.78629        0.89214
C         -1.33082       -0.33877       -0.02297
O         -2.41391       -1.15179       -0.29563
C         -1.63464        1.10632        0.42560
C         -0.25613        1.45513       -0.13609
C         -0.24365        0.25241       -1.04688
H          3.67732       -0.80154       -0.08472
H          2.49862        0.66543        1.18460
H          2.46322        1.21036       -0.50368
H          0.19265       -1.79073        0.63922
H         -0.30553       -0.69950        1.97633
H         -2.09077       -2.04326       -0.46478
H         -2.43037        1.54246       -0.18411
H         -1.84216        1.26994        1.48946
H          0.14565        2.43953       -0.33992
H         -0.04865        0.13785       -2.10327
