19
../xyz/dsC7O2H10nsd_0126.xyz
C          0.57617       -2.18342        0.00000
C          0.12090       -1.36502        1.24326
C          0.12090        0.05718        0.73248
C         -0.67635        1.25899        1.17343
O         -0.82618        2.06296        0.00000
C         -0.67635        1.25899       -1.17343
C          0.12090        0.05718       -0.73248
C          0.12090       -1.36502       -1.24326
O          1.30539        0.41762        0.00000
H          1.66515       -2.26038        0.00000
H          0.17464       -3.19970        0.00000
H         -0.89780       -1.63396        1.54860
H          0.77506       -1.52399        2.10570
H         -1.65212        0.93202        1.56883
H         -0.18313        1.87696        1.93034
H         -1.65212        0.93202       -1.56883
H         -0.18313        1.87696       -1.93034
H         -0.89780       -1.63396       -1.54860
H          0.77506       -1.52399       -2.10570
