19

C	-2.370741	-0.995573	0.126805
C	-1.180692	-0.299884	-0.51577
O	-1.307611	1.116635	-0.26476
C	-0.025477	1.743093	-0.143244
C	0.896801	0.628228	0.269493
C	2.233289	0.027834	-0.214502
C	1.470659	-1.323769	-0.469705
C	0.186089	-0.631964	0.032927
O	0.417303	-0.159396	1.362153
H	-2.352889	-2.066785	-0.096863
H	-2.337984	-0.856858	1.209925
H	-3.306043	-0.577694	-0.254361
H	-1.168481	-0.491494	-1.602216
H	0.315944	2.167483	-1.101066
H	-0.132962	2.556919	0.580491
H	2.597798	0.484226	-1.13731
H	3.03363	0.019236	0.527749
H	1.427511	-1.585864	-1.529126
H	1.786374	-2.19487	0.107618
