19

C	2.196486	-0.73036	0.395121
O	2.109884	0.135083	-0.741522
C	0.940551	-0.050312	0.072028
C	0.411287	1.179718	0.80004
C	-0.744292	1.656923	-0.105096
C	-1.350993	0.363352	-0.646942
O	-2.125292	-0.349825	0.351113
C	-1.214409	-1.467432	0.328859
C	-0.239195	-0.724133	-0.607126
H	2.316959	-1.789605	0.168358
H	2.813032	-0.364287	1.215709
H	0.02335	0.893356	1.783667
H	1.196429	1.924225	0.945891
H	-1.488654	2.263502	0.417349
H	-0.352431	2.244622	-0.943673
H	-1.919251	0.490166	-1.574242
H	-0.840767	-1.719737	1.329285
H	-1.674839	-2.359579	-0.114475
H	0.052823	-1.231262	-1.525898
