19

C	-2.233713	-1.475428	-0.322895
C	-1.474153	-0.241538	0.038806
C	-1.911642	1.228693	-0.094582
C	-0.399548	1.627144	-0.209123
C	-0.046737	0.136575	-0.067095
C	1.169491	-0.591569	-0.560141
C	2.392771	-0.292203	0.2921
O	3.458627	0.053861	-0.146081
O	-0.609373	-0.291443	1.189322
H	-2.653828	-1.39179	-1.330265
H	-1.58703	-2.356263	-0.282931
H	-3.063155	-1.635248	0.375376
H	-2.470719	1.432717	-1.011113
H	-2.460609	1.622058	0.764112
H	-0.145773	2.039325	-1.188796
H	0.001833	2.274914	0.573746
H	0.982077	-1.67183	-0.492572
H	1.396339	-0.337961	-1.599714
H	2.22801	-0.425316	1.38381
