19

C	2.430995	0.012508	0.91621
C	1.769269	-0.485699	-0.374034
C	0.262679	-0.366113	-0.364709
C	-0.627429	-1.320075	-1.146497
C	-0.717782	-1.272061	0.348327
C	-1.796197	-0.361178	0.906052
O	-1.564542	0.937525	0.333438
C	-0.335666	1.008166	-0.262614
O	0.138039	2.047225	-0.625206
H	3.518263	-0.09422	0.860534
H	2.206013	1.069609	1.083786
H	2.082397	-0.55359	1.786826
H	2.149345	0.089805	-1.225921
H	2.039131	-1.532608	-0.5551
H	-1.444007	-0.918146	-1.738758
H	-0.123299	-2.172073	-1.589524
H	-0.387687	-2.115668	0.94217
H	-2.811622	-0.668448	0.636949
H	-1.731718	-0.275947	1.996765
