19
../xyz/dsC7O2H10nsd_3967.xyz
C         -0.50444       -1.51392        1.06410
C         -0.01133       -0.46956        0.06916
O          1.05165       -0.99352       -0.71919
C          2.23684       -0.23558       -0.41682
C          1.74483        1.04364        0.24410
C          0.47285        0.85903        0.57421
C         -0.88328        1.51054        0.46850
C         -1.17436        0.36196       -0.58901
O         -2.43153       -0.26058       -0.58511
H         -1.29839       -1.12057        1.70365
H         -0.90802       -2.37442        0.52394
H          0.32483       -1.85048        1.69241
H          2.91590       -0.83218        0.21362
H          2.76827       -0.01978       -1.35322
H          2.32774        1.95587        0.27211
H         -1.52069        1.37170        1.34686
H         -0.92528        2.55052        0.13989
H         -0.86403        0.68538       -1.59032
H         -3.06795        0.33012       -0.99995
