19

O	-3.150588	-0.744631	-0.232291
C	-2.108897	-0.08594	0.423469
C	-1.835877	1.31946	-0.006947
C	-0.836388	0.219852	-0.32811
C	0.484628	0.171173	0.373044
O	1.067738	-1.174221	0.318352
C	2.15532	-0.682173	-0.467568
C	2.962075	0.319214	0.295318
C	1.679656	0.747394	-0.390731
H	-2.9076	-1.673767	-0.306763
H	-2.014602	-0.310803	1.486491
H	-2.429497	1.699418	-0.830011
H	-1.581336	2.051655	0.752148
H	-0.818238	-0.113371	-1.361896
H	0.379801	0.5079	1.413969
H	2.51697	-1.301045	-1.280673
H	3.01411	0.25057	1.378735
H	3.871031	0.661437	-0.190481
H	1.629066	1.52494	-1.140849
