19
../xyz/dsC7O2H10nsd_2789.xyz
C         -1.68905        1.71518       -0.13002
C         -0.70869        0.58190       -0.07331
C         -1.07606       -0.84822       -0.36242
O         -2.46075       -1.06360       -0.36321
C         -0.48524       -0.49486        0.99152
C          1.03581       -0.22727        0.97044
C          1.68860       -0.38976       -0.37655
O          3.07066       -0.17876       -0.44671
C          0.82553        0.82447       -0.12986
H         -1.45352        2.48111        0.61790
H         -1.67086        2.19746       -1.11555
H         -2.70245        1.35138        0.05033
H         -0.54380       -1.45310       -1.09373
H         -2.62499       -1.92548        0.03367
H         -1.05764       -0.67895        1.89327
H          1.63880       -0.16246        1.86949
H          1.43182       -1.17739       -1.07435
H          3.30768        0.51862        0.17466
H          1.25019        1.81913       -0.21506
