19

C	-1.439624	1.770799	-0.419159
C	-0.429697	0.771185	0.084784
O	0.263189	1.220604	1.224269
C	0.398594	-0.080409	-0.897245
C	1.802117	-0.176667	-0.661991
C	2.979739	-0.190552	-0.404384
C	-0.626334	-0.724031	0.07932
C	-1.840965	-1.400985	-0.503237
O	-0.145627	-1.406037	1.185782
H	-0.937153	2.693356	-0.728369
H	-1.999076	1.383924	-1.273924
H	-2.151509	2.022012	0.373615
H	1.19346	1.341841	0.984788
H	0.091805	-0.03051	-1.938126
H	4.020909	-0.257483	-0.206295
H	-2.173759	-0.924595	-1.427861
H	-1.604452	-2.446436	-0.723947
H	-2.665391	-1.38576	0.216634
H	0.221684	-0.728935	1.774556
