19
../xyz/dsC7O2H10nsd_2216.xyz
C          1.88871       -1.21047        0.28240
C          0.55727       -0.60432       -0.03298
O          0.11635       -0.69732       -1.40088
C         -0.88339        0.29477       -1.01947
C         -1.81628       -0.54307       -0.12979
C         -0.72257       -0.79321        0.92864
C         -0.46855        0.64619        1.46321
C          0.11239        0.88536        0.07339
O          0.88299        2.00156       -0.19548
H          1.87645       -2.28858        0.08965
H          2.67694       -0.76246       -0.33071
H          2.14201       -1.05686        1.33563
H         -1.27443        0.87458       -1.85567
H         -2.67678       -0.00117        0.27213
H         -2.15466       -1.43529       -0.66104
H         -0.81554       -1.64166        1.60293
H         -1.33440        1.22656        1.79328
H          0.32008        0.68950        2.21918
H          1.24014        1.90981       -1.08689
