19
../xyz/dsC7O2H10nsd_0175.xyz
C         -2.05387        0.00000       -0.62362
C         -1.14245       -1.03235        0.11323
C         -1.08797       -0.00000        1.27307
C         -1.14245        1.03235        0.11323
C          0.18524        0.78324       -0.61555
O          1.34055        1.13424        0.13512
C          2.17750       -0.00000        0.10862
O          1.34055       -1.13424        0.13512
C          0.18524       -0.78324       -0.61555
H         -2.05697        0.00000       -1.71916
H         -3.07928        0.00000       -0.24909
H         -1.44034       -2.06911        0.26615
H         -2.00646       -0.00000        1.86353
H         -0.21185       -0.00000        1.92185
H         -1.44034        2.06911        0.26615
H          0.22238        1.23739       -1.61290
H          2.80092        0.00000       -0.80465
H          2.81332       -0.00000        0.99859
H          0.22238       -1.23738       -1.61290
