19

C	-0.52596	-0.230763	1.337516
C	-1.168769	-1.074612	0.201996
C	-2.12747	-0.000843	-0.374565
O	-1.262768	1.177863	-0.384147
C	-0.064886	0.596753	0.101588
C	1.282609	1.25598	0.032295
O	2.182175	0.140559	0.077458
C	1.53121	-1.093512	-0.328037
C	0.0851	-0.741438	-0.666865
H	-1.190968	0.276893	2.039794
H	0.283195	-0.732445	1.865237
H	-1.578297	-2.075394	0.341378
H	-2.464293	-0.211721	-1.395649
H	-2.998386	0.182653	0.263474
H	1.388084	1.827306	-0.902335
H	1.522067	1.909906	0.876294
H	2.057951	-1.493373	-1.201325
H	1.639905	-1.816639	0.488363
H	-0.085512	-0.68395	-1.745282
