19
../xyz/dsC7O2H10nsd_3759.xyz
C         -3.04308        0.77303       -0.72148
C         -1.99625       -0.24649       -0.34051
C         -1.79035       -0.66224        1.07086
C         -0.73359        0.21139        0.39761
C          0.53873       -0.43195        0.02112
O          0.64812       -1.59909       -0.30212
C          1.80083        0.46801        0.03986
C          3.09117       -0.20527       -0.35644
O          1.71397        1.63143        0.35817
H         -2.77560        1.29506       -1.64596
H         -4.01388        0.28989       -0.87823
H         -3.16923        1.52510        0.06415
H         -1.79742       -1.01936       -1.07818
H         -2.38169       -0.18768        1.84673
H         -1.49592       -1.68787        1.26380
H         -0.66656        1.25187        0.68544
H          3.91160        0.51053       -0.30426
H          3.28406       -1.05989        0.29952
H          3.00325       -0.61525       -1.36753
