19
../xyz/dsC7O2H10nsd_2397.xyz
C         -0.31122        2.05712       -0.53833
C         -0.38957        0.61994       -0.07950
C         -1.32887        0.25684        1.09224
O         -1.94000       -0.82237        0.34531
C         -1.12238       -0.55781       -0.80759
C          0.17628       -1.40339       -0.81833
C          0.87799       -0.25155       -0.07884
C          2.28151        0.16121       -0.12378
O          1.70743       -0.41405        1.05886
H          0.22237        2.14633       -1.49033
H         -1.31097        2.48441       -0.66890
H          0.21827        2.67379        0.19801
H         -0.84175       -0.08689        2.01149
H         -2.06270        1.03569        1.33616
H         -1.70154       -0.46708       -1.72984
H          0.09581       -2.33968       -0.26209
H          0.58296       -1.60074       -1.81463
H          3.00920       -0.46377       -0.64098
H          2.54652        1.21509       -0.04752
