19

C	1.462072	1.473813	0.620571
C	1.184587	0.070608	0.094194
C	2.457912	-0.603629	-0.421413
C	0.366263	-0.882395	1.038713
C	-0.697469	-1.094127	-0.087204
C	0.048024	-0.058056	-0.960692
O	-1.049871	0.891303	-0.769403
C	-1.783889	-0.02765	-0.044634
O	-2.874061	0.114589	0.40552
H	2.13609	1.43051	1.483298
H	1.939391	2.094853	-0.145638
H	0.540919	1.973226	0.929621
H	2.251705	-1.59895	-0.831258
H	2.924285	-0.005372	-1.211967
H	3.186301	-0.72201	0.387601
H	0.899242	-1.796527	1.30705
H	-0.025681	-0.428401	1.951256
H	-0.977197	-2.103676	-0.378052
H	0.291398	-0.162168	-2.018059
