19

O	3.095691	0.108192	-0.038077
C	1.948733	-0.715256	-0.189844
C	0.800762	-0.059596	0.564915
C	0.367525	1.323478	-0.023639
C	-1.096761	1.045795	-0.336464
C	-1.260337	-0.411376	-0.861219
O	-2.567798	-0.544164	-0.203642
C	-1.704513	0.135464	0.7716
C	-0.518577	-0.819259	0.449427
H	3.817304	-0.282142	-0.53951
H	1.677701	-0.827376	-1.253353
H	2.128709	-1.726418	0.2097
H	1.106743	0.039728	1.612522
H	0.492421	2.139187	0.694164
H	0.948743	1.586014	-0.912867
H	-1.729989	1.819504	-0.769426
H	-1.160576	-0.804371	-1.873832
H	-2.135282	0.403608	1.737365
H	-0.589914	-1.855449	0.780331
