19
../xyz/dsC7O2H10nsd_1729.xyz
C         -0.68409       -0.00009        1.74178
C         -0.57694       -0.00001        0.20436
O          0.05706        1.17752       -0.27687
C          1.46010        1.23802       -0.04194
C          2.15240        0.00004       -0.60818
C          1.46011       -1.23801       -0.04206
O          0.05706       -1.17750       -0.27696
C         -1.92566        0.00000       -0.38212
C         -3.04460        0.00004       -0.81469
H         -1.22733        0.88983        2.06596
H         -1.22734       -0.89003        2.06586
H          0.29798       -0.00012        2.21936
H          1.79693        2.15458       -0.53303
H          1.67612        1.33952        1.03310
H          2.06135        0.00009       -1.69928
H          3.21700        0.00003       -0.34964
H          1.79694       -2.15451       -0.53324
H          1.67614       -1.33961        1.03297
H         -4.02867        0.00016       -1.21440
