19
../xyz/dsC7O2H10nsd_5154.xyz
C         -2.03170        1.61283        0.12221
C         -1.86486        0.25233       -0.56990
C         -0.60715       -0.44884       -0.16249
O         -0.54332       -1.04622        1.14209
C         -0.23586       -1.86451        0.00368
C          1.22799       -1.59320       -0.35621
C          0.85945       -0.07100       -0.54068
C          1.53318        0.92256        0.36650
O          2.09404        1.92144       -0.01282
H         -2.95940        2.09717       -0.19484
H         -2.06395        1.49193        1.20890
H         -1.20322        2.28659       -0.11906
H         -2.71214       -0.39974       -0.32995
H         -1.85749        0.38333       -1.65895
H         -0.81831       -2.77033       -0.12006
H          1.94902       -1.83348        0.42940
H          1.54796       -2.04491       -1.29713
H          0.95570        0.25831       -1.57730
H          1.46978        0.66834        1.44625
