19

O	-0.252884	1.732221	-1.006213
C	-0.00937	1.055109	0.22613
C	-1.311203	0.677957	0.942149
C	-2.11303	-0.351879	0.131675
C	-1.240358	-1.460045	-0.397883
C	0.093226	-1.392545	-0.438346
C	0.840685	-0.18959	0.00229
C	2.262539	-0.020744	-0.330763
O	1.879398	-0.428141	0.981466
H	-0.592703	1.087036	-1.635806
H	0.566954	1.756693	0.835773
H	-1.051279	0.252525	1.918925
H	-1.906662	1.578276	1.118358
H	-2.912049	-0.778497	0.749126
H	-2.632362	0.141355	-0.703349
H	-1.740778	-2.355803	-0.758076
H	0.682365	-2.232086	-0.797148
H	2.771761	-0.778523	-0.925794
H	2.667708	0.986803	-0.415552
