19
../xyz/dsC7O2H10nsd_2536.xyz
C         -2.60569       -1.33602       -0.09380
C         -1.37451       -0.48534        0.03484
C         -0.20616       -0.93944        0.49338
C          1.00764       -0.05095        0.64873
C          0.56488        1.42008        0.62277
O         -0.30603        1.66755       -0.46554
C         -1.52698        0.96391       -0.35997
C          1.97822       -0.35233       -0.48739
O          2.98032       -1.01001       -0.37517
H         -3.43791       -0.92066        0.48895
H         -2.94746       -1.38427       -1.13555
H         -2.42469       -2.35600        0.25386
H         -0.08756       -1.98642        0.75953
H          1.52614       -0.27785        1.58693
H          0.07861        1.66783        1.57982
H          1.41587        2.09508        0.49035
H         -2.20125        1.46635        0.35881
H         -2.00571        1.03958       -1.34365
H          1.66517        0.07665       -1.46474
