19

O	1.44548	1.797801	-0.104635
C	0.987805	0.468636	-0.343711
C	2.069996	-0.505278	-0.205795
C	2.987289	-1.26341	-0.036529
C	-0.207508	0.128188	0.580643
C	-1.40604	1.072208	0.363012
C	-2.325197	0.249412	-0.554395
C	-2.041129	-1.172118	-0.067254
O	-0.658138	-1.190851	0.280273
H	2.015362	1.771733	0.671945
H	0.623432	0.465269	-1.378328
H	3.789321	-1.947343	0.093609
H	0.152175	0.160678	1.618699
H	-1.902619	1.27336	1.317173
H	-1.093488	2.029119	-0.058257
H	-3.378491	0.527596	-0.471708
H	-2.028806	0.357397	-1.603075
H	-2.656733	-1.415356	0.813183
H	-2.21018	-1.943883	-0.824173
