19

C	2.9768	-0.080666	0.366601
C	1.562774	0.295156	0.065443
C	0.987027	1.506298	0.030269
C	-0.478645	1.479341	-0.319603
C	-0.799757	-0.018779	-0.49051
C	-1.863442	-0.549238	0.482153
O	-3.124564	0.07759	0.31772
C	0.542123	-0.733326	-0.25649
O	0.719604	-1.931373	-0.305735
H	3.419029	-0.621756	-0.477065
H	3.593337	0.795099	0.583438
H	3.020383	-0.762369	1.222973
H	1.50677	2.438637	0.230991
H	-1.092686	1.940252	0.463414
H	-0.675327	2.058773	-1.229929
H	-1.128593	-0.247049	-1.512121
H	-1.92633	-1.640863	0.379029
H	-1.55976	-0.332819	1.512753
H	-3.478428	-0.190359	-0.536543
