19

C	-3.84177	0.045049	0.160568
C	-2.531181	-0.514141	-0.399012
C	-1.313129	0.052867	0.314808
O	-0.147772	-0.522654	-0.263883
C	1.065249	-0.101332	0.320634
C	2.155277	-0.974737	-0.326894
O	3.121115	-1.381676	0.253709
C	1.378069	1.308844	0.064307
C	1.656927	2.452017	-0.182323
H	-4.702471	-0.374111	-0.367907
H	-3.956817	-0.193239	1.223641
H	-3.887401	1.134754	0.058056
H	-2.513653	-1.606188	-0.308765
H	-2.445426	-0.28614	-1.467448
H	-1.279178	1.148018	0.218044
H	-1.349058	-0.182521	1.39148
H	1.08083	-0.293716	1.404583
H	1.948603	-1.189293	-1.396211
H	1.901182	3.465677	-0.38661
