19
../xyz/dsC7O2H10nsd_4393.xyz
C          3.15095        0.28183        0.07598
C          1.72091        0.06108       -0.43595
C          1.08977       -1.18324        0.19929
O         -0.29179       -1.28854       -0.10956
C         -1.06518       -0.23508        0.42232
C         -2.41367       -0.27205       -0.29893
O         -3.32365        0.46949       -0.04264
C         -0.42190        1.11960        0.26296
C          0.83278        1.25013       -0.15866
H          3.78546       -0.58478       -0.13753
H          3.60609        1.15485       -0.40207
H          3.15999        0.45082        1.15829
H          1.76837       -0.09645       -1.52357
H          1.55322       -2.10022       -0.17538
H          1.23392       -1.15165        1.29205
H         -1.28243       -0.41204        1.49361
H         -2.47077       -1.05176       -1.08888
H         -1.05563        1.97003        0.49294
H          1.26333        2.23995       -0.29391
