19
../xyz/dsC7O2H10nsd_5470.xyz
O          3.02372       -0.01114       -0.45181
C          1.96552        0.23682        0.47027
C          0.80762       -0.73088        0.28113
C         -0.21852       -0.50159       -0.85911
C         -1.33771       -1.27297       -0.08514
C         -2.37683       -0.14684       -0.25410
C         -1.03158        0.56917       -0.02265
O         -0.79037        1.92566        0.10594
C         -0.53491       -0.48891        1.01176
H          2.68005        0.15462       -1.33524
H          2.40718        0.09570        1.46351
H          1.61352        1.27497        0.40972
H          1.17562       -1.76243        0.34397
H         -0.07853       -0.51152       -1.94285
H         -1.48542       -2.34995       -0.10558
H         -2.83291       -0.04383       -1.24502
H         -3.12857       -0.04588        0.53509
H         -1.10446        2.36826       -0.69030
H         -0.75477       -0.48493        2.08070
