19

C	2.096622	-0.505361	0.231645
C	1.187901	0.371283	-0.606715
C	0.522119	1.68753	-0.276956
O	-0.908313	1.496953	-0.240639
C	-1.348109	0.29222	0.368294
C	-0.291238	-0.228742	1.335695
C	0.625242	-0.760846	0.236341
C	-0.334399	-1.63427	-0.532208
O	-1.509824	-0.78806	-0.566231
H	2.76049	-1.165025	-0.317688
H	2.5255	-0.121396	1.152788
H	1.222586	0.15285	-1.670206
H	0.875949	2.101891	0.676662
H	0.69228	2.444781	-1.045785
H	-2.340525	0.507778	0.766966
H	0.140752	0.540937	1.97477
H	-0.681495	-1.034187	1.964849
H	-0.01784	-1.851051	-1.556693
H	-0.581441	-2.578609	-0.027278
