19
../xyz/dsC7O2H10nsd_3001.xyz
O         -3.47874       -0.28565        0.04747
C         -2.17042        0.02722        0.43014
C         -1.31185        0.83133       -0.50047
C          0.01320        1.19796        0.17308
C          0.30303       -0.32604        0.41582
C          1.53838       -0.85294       -0.32858
C          2.80721       -0.32279        0.29751
O          3.55440        0.46521       -0.22380
C         -1.03121       -0.67121       -0.25751
H         -3.50562       -0.38790       -0.90989
H         -2.14438        0.20554        1.50371
H         -1.74317        1.32430       -1.36529
H          0.74066        1.64230       -0.51025
H         -0.05999        1.83209        1.06292
H          0.35967       -0.61974        1.47207
H          1.55165       -1.95027       -0.27042
H          1.51189       -0.55745       -1.38188
H          3.00376       -0.69874        1.32947
H         -1.20975       -1.52782       -0.89975
