19

C	-1.766182	0.147447	1.271129
C	-0.96889	-0.08338	-1e-06
C	-1.766206	0.147601	-1.271089
O	-0.410613	-1.465794	-9.3e-05
C	0.883577	-1.006373	1.6e-05
O	1.890284	-1.643836	-2.5e-05
C	0.477439	0.433444	1.2e-05
C	1.142268	1.553644	0.750874
C	1.142279	1.553655	-0.750827
H	-2.648537	-0.499247	1.291447
H	-1.159341	-0.064929	2.154696
H	-2.10652	1.186875	1.325291
H	-2.648551	-0.499104	-1.291473
H	-2.106559	1.18703	-1.325111
H	-1.159378	-0.064653	-2.154694
H	0.498233	2.260953	1.262721
H	2.064654	1.316446	1.269694
H	0.498251	2.260972	-1.262672
H	2.064674	1.316468	-1.269636
