19
../xyz/dsC7O2H10nsd_2897.xyz
C          2.48979       -0.38528       -0.20028
C          1.19945        0.36607       -0.50891
C          0.01564       -0.47071       -0.98009
C         -1.23083        0.46871       -0.80762
C         -1.95171       -0.65634       -0.03176
C         -0.53563       -1.16368        0.32336
O          0.01450       -0.34482        1.37271
C          0.39137        0.85498        0.70911
O         -0.75468        1.45838        0.12606
H          3.23831        0.28511        0.23551
H          2.31540       -1.19823        0.50916
H          2.92055       -0.81229       -1.11162
H          1.38506        1.20770       -1.18339
H          0.08662       -1.06836       -1.88548
H         -1.70771        0.97168       -1.64967
H         -2.59838       -0.35898        0.79560
H         -2.47318       -1.34487       -0.70428
H         -0.35495       -2.21349        0.55595
H          0.84136        1.54066        1.42522
