19
../xyz/dsC7O2H10nsd_0874.xyz
O          2.88026        0.13314        0.03999
C          1.81262       -0.24782       -0.36506
C          0.56710       -0.40225        0.47924
C         -0.07890       -1.80393        0.29976
C         -1.54333       -1.47796       -0.04457
O         -1.48270       -0.23249       -0.72622
C         -0.54350        0.54193       -0.02531
C         -1.04811        1.69202        0.80919
C         -0.33342        1.94044       -0.50758
H          1.65867       -0.50462       -1.43969
H          0.83118       -0.18925        1.51680
H          0.39051       -2.33500       -0.53551
H          0.02553       -2.42573        1.19084
H         -2.01486       -2.20398       -0.71044
H         -2.14892       -1.39073        0.87049
H         -2.12181        1.84209        0.82475
H         -0.53215        1.93792        1.73145
H         -0.93376        2.25864       -1.35228
H          0.67031        2.35088       -0.48067
