19

O	-2.372461	-0.086758	-0.541584
C	-1.352316	-0.015796	0.455518
C	-0.738461	1.367648	0.445538
C	0.486605	1.761887	0.090297
C	1.668975	0.944464	-0.363045
C	1.506191	-0.565568	-0.285904
C	0.935847	-1.104958	1.043637
C	-0.383954	-1.17434	0.257166
O	0.321675	-1.011358	-1.003001
H	-1.90454	-0.039226	-1.385743
H	-1.874807	-0.164851	1.410451
H	-1.456486	2.140867	0.71136
H	0.68203	2.83334	0.10882
H	1.907462	1.221302	-1.400685
H	2.554373	1.230548	0.224144
H	2.402828	-1.065611	-0.667306
H	1.32674	-2.088999	1.306078
H	0.971787	-0.445934	1.912271
H	-0.940424	-2.116529	0.278044
