19

O	1.651078	1.267793	-0.604613
C	1.581167	0.290263	0.401427
C	1.690472	-1.20283	-0.115303
C	0.187806	-1.250061	0.028118
C	-0.957138	-1.48015	-0.605661
C	-2.023983	-0.530591	-0.071123
C	-1.208629	0.628229	0.576555
O	-1.071237	1.637744	-0.4288
C	0.130982	-0.060572	0.947767
H	0.840925	1.196965	-1.129355
H	2.315015	0.570109	1.161695
H	2.119099	-1.337705	-1.111387
H	2.227287	-1.835719	0.599422
H	-1.130163	-2.157869	-1.433378
H	-2.667155	-0.128477	-0.860865
H	-2.681986	-1.006243	0.668347
H	-1.723401	1.051231	1.449101
H	-0.519143	2.338611	-0.063515
H	0.176735	-0.300931	2.016557
