19
../xyz/dsC7O2H10nsd_3944.xyz
C         -2.31003        0.82733        0.00000
C         -1.48487       -0.44797        0.00000
O         -0.63934       -0.53240       -1.16689
C          0.66366       -0.26801       -0.74640
C          1.41426       -1.34557       -0.00000
C          0.66366       -0.26802        0.74639
C          1.38203        1.09461        0.78700
C          1.38203        1.09461       -0.78700
O         -0.63933       -0.53240        1.16689
H         -1.66021        1.70705        0.00001
H         -2.94578        0.85996       -0.88926
H         -2.94579        0.85995        0.88926
H         -2.12826       -1.33515        0.00000
H          0.93424       -2.31624       -0.00000
H          2.50135       -1.35966       -0.00001
H          0.75197        1.87974        1.20808
H          2.35275        1.11054        1.29074
H          0.75196        1.87975       -1.20807
H          2.35274        1.11056       -1.29075
