19

C	2.756594	-0.83467	0.108041
C	1.333098	-0.40283	-0.042981
C	0.219799	-1.058756	0.299803
C	-1.061085	-0.272258	0.032559
C	-2.024553	-0.982122	-0.910559
O	-1.772766	-0.018358	1.239927
C	-0.507745	1.033765	-0.56568
O	0.263949	1.777241	0.385441
C	0.951812	0.94462	-0.590951
H	3.30987	-0.147189	0.759965
H	2.826876	-1.839684	0.531623
H	3.276577	-0.836554	-0.8582
H	0.18319	-2.022297	0.797867
H	-2.343083	-1.934406	-0.477522
H	-2.914096	-0.364548	-1.070114
H	-1.54988	-1.180427	-1.875845
H	-1.207691	0.574258	1.753195
H	-1.102113	1.623368	-1.258891
H	1.583366	1.489917	-1.286412
