19
../xyz/dsC7O2H10nsd_4479.xyz
O         -1.85944       -1.33024       -0.45153
C         -1.14474       -0.59161        0.53239
C         -1.55396        0.90594        0.40582
C         -0.49603        1.65242       -0.49464
C          0.52834        0.57869       -0.89032
C          1.86604        0.32181       -0.13816
C          1.62290       -1.22046       -0.24253
C          0.31917       -0.50261        0.17836
O          1.12684        0.31626        1.13730
H         -1.57605       -2.24902       -0.39742
H         -1.33130       -0.98157        1.54167
H         -2.56150        0.94817       -0.01550
H         -1.58809        1.35722        1.39923
H         -0.96659        2.08231       -1.38186
H         -0.04239        2.47081        0.06598
H          0.48971        0.25705       -1.93341
H          2.81607        0.85803       -0.16839
H          1.65334       -1.68522       -1.23133
H          2.11725       -1.81093        0.52938
