19
../xyz/dsC7O2H10nsd_2551.xyz
C          2.62274        0.20300       -0.41124
C          1.25255       -0.25328       -0.03639
C          0.52417       -1.26779       -0.50080
C         -0.85147       -1.17630        0.14854
O         -0.57727       -0.51457        1.36878
C          0.35957        0.49077        0.95987
C         -0.48630        1.56455        0.24564
C         -1.23616        0.90297       -0.93446
O         -1.75193       -0.39467       -0.62368
H          2.60942        1.22760       -0.80427
H          3.28760        0.21474        0.46159
H          3.06817       -0.44362       -1.17156
H          0.78426       -1.97008       -1.28193
H         -1.36897       -2.11473        0.35123
H          0.87820        0.87544        1.84225
H         -1.19443        1.96661        0.97634
H          0.12163        2.39589       -0.13012
H         -2.10007        1.50313       -1.23191
H         -0.56291        0.83543       -1.79941
