19
../xyz/dsC7O2H10nsd_0181.xyz
C          1.26510        0.33534        1.10046
C          1.31487       -0.79743        0.05562
C          0.15084       -1.79434        0.00409
O         -1.06605       -1.27171       -0.47350
C         -1.78385       -0.37053        0.34878
C         -1.59694        1.09936        0.02151
C         -0.46541        1.77396       -0.19505
C          0.94280        1.24569       -0.10958
O          1.24655        0.15447       -1.02669
H          0.51212        0.27139        1.88676
H          2.23546        0.54787        1.55118
H          2.25458       -1.36556        0.04173
H          0.40114       -2.59534       -0.69940
H          0.03115       -2.25155        1.00299
H         -2.84231       -0.61409        0.20072
H         -1.56875       -0.56136        1.41366
H         -2.52947        1.65638       -0.04770
H         -0.55195        2.83030       -0.43986
H          1.64959        2.06750       -0.26356
