19

C	-2.17505	-0.303293	-1.266317
C	-1.327862	-0.101421	-5e-06
C	-2.174034	-0.302198	1.267199
O	-0.806224	1.241835	-0.000926
C	0.618973	1.245989	-0.000213
C	1.010501	-0.20865	-0.00012
C	2.393092	-0.687109	0.0
O	3.358848	0.044307	7.5e-05
C	-0.091403	-0.963479	-3e-06
H	-2.601523	-1.311027	-1.300026
H	-2.995772	0.419698	-1.276938
H	-1.568381	-0.149754	-2.162531
H	-2.600342	-1.309959	1.30222
H	-1.566679	-0.147745	2.162793
H	-2.994843	0.420694	1.277781
H	1.001592	1.77547	-0.884008
H	1.000885	1.775253	0.884046
H	2.50471	-1.793783	4.4e-05
H	-0.125935	-2.047015	0.000181
