19
../xyz/dsC7O2H10nsd_3950.xyz
O         -2.38078        0.03850       -0.46373
C         -1.22641       -0.70894       -0.18736
C         -0.68418       -0.68044        1.30211
C          0.61194        0.01475        0.79890
C          1.86331       -0.78966        0.33889
C          1.32576       -0.75246       -1.14598
C          0.08392        0.01303       -0.62123
O          0.07465        1.44231       -0.72931
C          0.59819        1.54860        0.63560
H         -3.13472       -0.42777       -0.08793
H         -1.29513       -1.72911       -0.59519
H         -1.29657       -0.06204        1.96501
H         -0.54403       -1.66259        1.76193
H          2.82341       -0.29275        0.50164
H          1.92436       -1.79358        0.76694
H          1.92802       -0.15945       -1.83700
H          1.12777       -1.72828       -1.59809
H          1.57604        2.04671        0.65323
H         -0.09527        2.09314        1.28807
