19

O	3.250726	0.280593	-0.386371
C	2.321257	-0.599028	0.223149
C	0.907393	-0.371076	-0.259386
C	0.03588	0.675409	0.380163
C	-0.929519	1.49653	-0.448468
O	-2.115626	1.811284	0.258159
C	-0.259132	-0.804641	0.616797
C	-1.432307	-1.404467	0.05065
C	-2.437543	-1.884242	-0.40723
H	2.968036	1.181061	-0.194302
H	2.654552	-1.608354	-0.040292
H	2.351922	-0.522025	1.32285
H	0.768202	-0.514681	-1.327307
H	0.438101	1.19066	1.249777
H	-0.470137	2.454865	-0.714295
H	-1.14992	0.967495	-1.387036
H	-2.579769	0.978269	0.402813
H	0.009283	-1.181452	1.600358
H	-3.307242	-2.331757	-0.82092
