19
../xyz/dsC7O2H10nsd_5492.xyz
O         -2.93035        0.77054       -0.04351
C         -2.27100       -0.48684       -0.10452
C         -0.78221       -0.37811       -0.34622
C          0.16602       -1.35826        0.32768
C          1.49913       -1.49134       -0.33745
C          2.18403       -0.34756       -0.29300
C          1.43882        0.74170        0.46597
O          1.35381        1.97796       -0.23215
C          0.09613        0.07821        0.79576
H         -2.80904        1.21063       -0.89073
H         -2.45273       -0.95656        0.86823
H         -2.72694       -1.13683       -0.86806
H         -0.50372       -0.08288       -1.35779
H         -0.24988       -2.17956        0.90126
H          1.82227       -2.40562       -0.82319
H          3.14720       -0.15649       -0.75178
H          1.96711        1.00053        1.39209
H          0.83780        1.82063       -1.03049
H         -0.40514        0.35130        1.71636
