19

C	-2.747502	-0.634012	-0.135981
C	-1.280555	-0.445808	0.05025
C	-0.237173	-1.146416	-0.40256
C	0.997603	-0.33494	-0.012354
C	2.354981	-0.974815	0.038277
O	1.016858	0.819827	-0.909888
C	-0.059196	1.636984	-0.45063
C	-0.63907	0.772052	0.715131
O	0.595096	0.242523	1.218619
H	-3.192591	0.209156	-0.680022
H	-2.965183	-1.546361	-0.697329
H	-3.267849	-0.692057	0.828345
H	-0.233238	-2.024947	-1.033922
H	2.638664	-1.322373	-0.958168
H	3.093823	-0.24734	0.380952
H	2.343026	-1.828068	0.720693
H	0.330936	2.589398	-0.075547
H	-0.780776	1.823921	-1.253737
H	-1.196969	1.301601	1.486082
