19

O	1.514401	1.459645	-0.949204
C	1.177614	0.131951	-0.666657
C	2.069242	-0.721233	0.264663
C	0.777332	-1.359319	0.840375
C	-0.055029	-0.184875	0.268844
C	-0.633576	0.964941	1.144448
C	-1.974353	0.910628	0.34638
C	-1.436307	-0.34766	-0.353993
O	-1.912338	-1.177484	-1.076923
H	1.841342	1.867157	-0.140264
H	1.023277	-0.357419	-1.632943
H	2.817347	-1.369419	-0.197199
H	2.566798	-0.08977	1.009887
H	0.513563	-2.295955	0.341862
H	0.728479	-1.506958	1.921266
H	-0.743328	0.691449	2.196445
H	-0.102502	1.917084	1.077741
H	-2.897212	0.775069	0.916345
H	-2.11381	1.744877	-0.348495
