19
../xyz/dsC7O2H10nsd_1125.xyz
C         -2.52723        0.63174       -0.66238
C         -1.51531       -0.24273        0.05401
O         -1.76087       -0.76437        1.11938
C         -0.16399       -0.39276       -0.62459
C          0.67472       -1.62410       -0.14566
C          1.71973       -0.65659        0.41185
O          2.15247        0.18519       -0.67325
C          0.94253        0.52451        0.00549
C          0.79618        1.90100        0.56610
H         -2.08480        1.59701       -0.93288
H         -2.82767        0.15094       -1.60103
H         -3.40540        0.78405       -0.03393
H         -0.24885       -0.24889       -1.70480
H          0.14165       -2.16598        0.63753
H          1.02706       -2.30591       -0.92242
H          2.41690       -0.79551        1.23020
H          0.59476        2.62921       -0.22814
H         -0.02571        1.94355        1.28750
H          1.71942        2.19856        1.07006
