19
../xyz/dsC7O2H10nsd_2323.xyz
O          0.23528        1.92457       -0.39076
C          0.39367        0.68712        0.23611
C          1.86047        0.16055        0.44306
C          1.58903       -0.99386       -0.59545
C          0.10188       -0.70103       -0.41813
C         -1.23690       -0.58499       -1.12898
C         -1.95457        0.19486        0.04581
C         -0.78644        0.21480        1.08235
O         -0.28818       -1.14348        0.93534
H          1.01590        2.11469       -0.91969
H          2.62033        0.88829        0.14236
H          2.08937       -0.18920        1.44888
H          1.95248       -0.74070       -1.59608
H          1.92249       -2.00000       -0.33378
H         -1.17047        0.01040       -2.04319
H         -1.71193       -1.54195       -1.35458
H         -2.28508        1.19247       -0.24859
H         -2.80001       -0.36368        0.45180
H         -1.01274        0.51625        2.10756
