19

C	0.128924	2.200643	-0.138321
C	-0.137584	0.836107	0.498713
C	-1.593947	0.403256	0.488465
O	-2.048025	-0.038563	-0.799266
C	-1.689783	-1.024782	0.180609
C	-0.297479	-1.589919	-0.012825
C	0.591096	-0.338732	-0.237977
C	1.992553	-0.506628	0.295915
O	3.003357	-0.241365	-0.300943
H	1.202322	2.406538	-0.191691
H	-0.274115	2.228051	-1.155228
H	-0.341184	3.004521	0.437155
H	0.184786	0.856679	1.551208
H	-2.329625	0.936094	1.086977
H	-2.504189	-1.655683	0.527612
H	-0.00203	-2.127147	0.898992
H	-0.231175	-2.29619	-0.845307
H	0.658844	-0.10423	-1.301542
H	2.031036	-0.888875	1.346022
