19
../xyz/dsC7O2H10nsd_4288.xyz
C          2.18902       -0.01532        1.22264
C          1.72368       -0.18765       -0.21810
C          1.06206        1.10344       -0.81059
C         -0.36016        0.78451       -0.51625
C         -1.35070        1.25856        0.22828
C         -2.27007        0.11987        0.59583
O         -1.61592       -1.06384        0.12315
C         -0.52516       -0.69878       -0.68819
O          0.72686       -1.23484       -0.28740
H          2.48672       -0.98278        1.63563
H          3.04733        0.66344        1.27563
H          1.38317        0.38799        1.84402
H          2.56687       -0.50754       -0.84081
H          1.42834        2.01419       -0.33329
H          1.25826        1.17141       -1.88670
H         -1.46196        2.25990        0.62507
H         -2.41100        0.05574        1.68401
H         -3.26995        0.19134        0.14110
H         -0.72738       -1.05205       -1.71244
