19
../xyz/dsC7O2H10nsd_4913.xyz
C         -3.50040       -0.16128        0.02538
C         -2.05259       -0.06999       -0.08458
C         -0.85411        0.00450       -0.18021
C          0.57451        0.15362       -0.30319
C          1.09011        1.58829       -0.35237
O          0.74034        2.33792        0.79373
O          1.24212       -0.72712       -1.23179
C          1.49381       -0.91836        0.16010
C          1.02564       -2.21009        0.77422
H         -3.92917       -0.68185       -0.83797
H         -3.79973       -0.70787        0.92636
H         -3.95449        0.83438        0.07289
H          2.17687        1.55306       -0.51971
H          0.63685        2.10663       -1.20273
H          1.11693        1.89767        1.56282
H          2.49099       -0.59168        0.46822
H          1.66306       -3.03724        0.44516
H          1.08258       -2.15505        1.86670
H         -0.00531       -2.42458        0.48667
