19

C	-1.738363	1.665776	0.155918
C	-0.995078	0.480335	-0.494052
C	-1.752718	-0.765854	-0.35054
C	-2.343214	-1.79727	-0.16248
C	0.397006	0.288784	0.104156
O	0.398178	-0.134417	1.447732
C	1.524087	1.224293	-0.244393
C	1.56039	-0.223851	-0.707183
O	2.433498	-1.126666	-0.110949
H	-2.740854	1.774203	-0.264789
H	-1.826451	1.509783	1.233514
H	-1.182895	2.592325	-0.013758
H	-0.867667	0.688116	-1.564346
H	-2.880676	-2.704675	-0.035151
H	-0.193022	-0.900035	1.494224
H	1.341203	2.008911	-0.971678
H	2.195163	1.493113	0.564379
H	1.421643	-0.432939	-1.763827
H	2.167481	-1.173419	0.818619
