19
../xyz/dsC7O2H10nsd_2714.xyz
C         -0.94017        1.89332       -0.66757
C         -0.10350        0.79303       -0.08801
C          1.45634        0.82091       -0.13571
C          2.16921       -0.10853        0.81681
C          1.50302       -0.67256       -0.40988
C         -0.03509       -0.72202       -0.32378
O         -0.73471       -1.58119       -1.13957
C         -0.61512       -0.19602        0.95906
O         -2.00886       -0.40714        0.94198
H         -0.85443        2.81962       -0.08352
H         -0.63378        2.12426       -1.69417
H         -1.99567        1.60727       -0.70055
H          1.98348        1.60453       -0.66614
H          3.25280       -0.06087        0.74786
H          1.81891       -0.31240        1.82181
H          2.04007       -1.19531       -1.19024
H         -1.64248       -1.58822       -0.80513
H         -0.18007       -0.31472        1.95114
H         -2.44843        0.37368        1.29412
