19
../xyz/dsC7O2H10nsd_5319.xyz
O         -2.53718       -0.90662        0.02973
C         -2.12913        0.44657        0.13151
C         -0.67328        0.54424       -0.17353
C          0.20273       -0.40506       -0.48611
C          0.59722       -1.82364       -0.13778
C          1.86475       -1.16221        0.52971
C          1.59525        0.11354       -0.35310
O          1.49590        1.42681        0.16628
C          0.12244        1.83135        0.03591
H         -3.48440       -0.94577        0.18954
H         -2.69935        1.09105       -0.56184
H         -2.31725        0.84869        1.14414
H         -0.09315       -2.38355        0.49207
H          0.87276       -2.43323       -1.00375
H          1.69125       -0.94351        1.58497
H          2.82389       -1.66904        0.39847
H          2.22042        0.10456       -1.25772
H          0.02010        2.55375       -0.79105
H         -0.18397        2.34678        0.95732
