19

C	2.405987	0.35375	-0.260237
C	1.011069	-0.145033	-0.061116
O	0.685979	-1.44633	-0.556094
C	0.425944	-1.179027	0.826279
C	-0.915031	-0.397632	0.902486
O	-1.915005	-0.766782	-0.056638
C	-1.418785	0.206264	-1.012599
C	-0.318144	0.685604	-0.03003
C	-0.222916	2.146423	0.342763
H	2.563397	0.662703	-1.300143
H	2.614969	1.21499	0.381387
H	3.12436	-0.437525	-0.030256
H	0.878958	-1.850392	1.548914
H	-1.304543	-0.195222	1.904472
H	-1.077195	-0.266761	-1.937246
H	-2.181354	0.963878	-1.232605
H	0.216484	2.73758	-0.469499
H	-1.212575	2.560814	0.559862
H	0.400959	2.292738	1.23169
