19

O	2.412198	-0.658774	-0.412742
C	1.224664	-0.651021	0.363674
C	1.018891	0.712033	1.029967
O	0.557031	1.528584	-0.044468
C	-0.413951	0.740684	-0.763372
C	-1.805143	0.87394	-0.197613
C	-2.259029	-0.27178	0.30543
C	-1.27764	-1.407187	0.15552
C	-0.040237	-0.760639	-0.522401
H	2.428404	0.176695	-0.89566
H	1.315046	-1.476897	1.073742
H	0.278494	0.658712	1.842174
H	1.946575	1.143211	1.412901
H	-0.347561	1.066578	-1.806145
H	-2.331191	1.821684	-0.198012
H	-3.227837	-0.407083	0.775618
H	-1.036401	-1.861187	1.12625
H	-1.691533	-2.217594	-0.456681
H	0.226839	-1.278769	-1.443743
