19

C	2.759754	-0.921634	0.314823
C	1.631358	-0.228868	-0.463259
C	0.346641	-1.03634	-0.496001
C	-0.669339	-0.436476	0.136728
C	-2.069019	-0.932489	0.316298
O	-3.033648	0.008072	-0.142596
C	-0.233621	0.920797	0.599933
O	0.159858	1.781641	-0.495321
C	1.177869	1.069599	0.206196
H	2.458167	-1.118308	1.348793
H	3.022561	-1.879105	-0.145013
H	3.660474	-0.298602	0.333827
H	1.978674	-0.020095	-1.484105
H	0.282553	-1.995989	-1.0001
H	-2.186265	-1.912815	-0.170854
H	-2.294722	-1.073776	1.380965
H	-2.784104	0.262136	-1.037697
H	-0.700705	1.427217	1.438802
H	1.891829	1.684095	0.750404
