19

O	2.73768	0.492427	-0.552941
C	2.112847	0.013951	0.361174
C	0.896867	-0.853865	0.187208
C	-0.482968	-0.746972	0.913241
O	-1.005421	-1.6615	-0.124734
C	-0.219684	-0.640258	-0.863595
C	-0.912704	0.465628	0.018039
C	-0.284754	1.840862	0.225278
C	-2.416546	0.616728	-0.211485
H	2.460562	0.126296	1.415185
H	1.237728	-1.896671	0.199891
H	-0.7335	-0.974217	1.951096
H	-0.167183	-0.733419	-1.948423
H	-0.366763	2.436292	-0.690358
H	-0.829878	2.376131	1.01043
H	0.766964	1.832233	0.508573
H	-2.8891	1.090357	0.656392
H	-2.603178	1.26638	-1.073945
H	-2.892075	-0.347235	-0.386602
