19
../xyz/dsC7O2H10nsd_1595.xyz
O          0.31585        1.56404        0.08809
C         -0.07971        0.22075       -0.01384
C          1.16414       -0.64612       -0.11510
C          2.36763       -0.33497        0.66636
O          2.29144        0.01270       -0.72484
C         -1.31442       -0.10904       -0.93786
C         -1.58574       -1.34025       -0.02528
C         -1.23464       -0.17959        0.95148
C         -2.17003        0.71270        0.07437
H          1.10937        1.64463       -0.46089
H          1.03530       -1.66844       -0.45709
H          2.34841        0.50993        1.35019
H          3.07598       -1.12624        0.90317
H         -1.35412       -0.06956       -2.02762
H         -2.62557       -1.67187        0.00806
H         -0.91473       -2.19870       -0.08046
H         -1.18374       -0.21935        2.04088
H         -3.23209        0.45841        0.11094
H         -2.00055        1.78645        0.10613
