19

C	-2.128305	-1.05459	-0.714135
C	-1.178673	-0.16897	0.039498
C	-1.542494	1.211068	0.529651
C	-0.451872	1.022684	-0.513793
C	0.96129	0.954711	0.013891
O	1.890321	0.356917	-0.91841
C	1.966438	-0.860441	-0.14155
C	0.972832	-0.310042	0.906189
O	-0.316671	-0.894852	0.907215
H	-2.750956	-1.629115	-0.020577
H	-2.789187	-0.457986	-1.34912
H	-1.58285	-1.761713	-1.347209
H	-2.475975	1.6518	0.195468
H	-1.252827	1.477877	1.541433
H	-0.603951	1.377359	-1.52686
H	1.346115	1.898923	0.415023
H	1.601318	-1.736966	-0.688416
H	2.985242	-1.04542	0.219479
H	1.33858	-0.2378	1.931839
