19
../xyz/dsC7O2H10nsd_0955.xyz
O         -3.64168       -0.46148       -0.19604
C         -2.69964        0.16887        0.21074
C         -1.31513        0.14796       -0.39151
C         -0.25144       -0.26197        0.64735
C          1.16410       -0.21038        0.10430
C          2.20106       -1.21917        0.59813
C          1.67657       -1.33545       -0.79087
C          1.71560        1.13510       -0.18728
O          1.12969        2.17611       -0.00941
H         -2.79908        0.83351        1.10171
H         -1.31821       -0.52531       -1.25343
H         -1.08554        1.16408       -0.73536
H         -0.31900        0.40446        1.51525
H         -0.46202       -1.27619        1.00518
H          3.21886       -0.87090        0.73967
H          1.86057       -1.92397        1.34819
H          2.33073       -1.07187       -1.61542
H          0.96738       -2.12421       -1.01574
H          2.75544        1.12360       -0.59162
