19

O	-2.311933	1.15426	-0.124502
C	-1.456319	0.33109	0.06499
C	-1.498779	-1.140445	-0.346625
O	-0.160707	-1.583332	-0.310646
C	0.571909	-0.834835	0.680324
C	1.98219	-0.588099	0.14559
C	1.807159	0.628423	-0.779451
C	0.833624	1.534895	-0.002178
C	-0.107426	0.55203	0.753127
H	-2.14579	-1.693354	0.357461
H	-1.903696	-1.269072	-1.354377
H	0.553785	-1.381274	1.632636
H	2.648449	-0.341732	0.981398
H	2.380224	-1.474783	-0.354045
H	2.749202	1.128395	-1.018016
H	1.355189	0.305254	-1.723036
H	1.383184	2.137554	0.728189
H	0.272307	2.227142	-0.635103
H	-0.305887	0.896086	1.771408
