19
../xyz/dsC7O2H10nsd_2256.xyz
O          2.28534       -0.12023       -0.50105
C          0.95836        0.14596       -0.17315
C          0.33067        1.54288       -0.30135
C         -0.74969        1.01204        0.68551
O         -1.82930        0.39568        0.00096
C         -1.34689       -0.45515       -1.04268
C          0.00476       -1.02779       -0.62537
C         -0.10279       -1.48923        0.85816
C          0.28773       -0.05434        1.23175
H          2.83986        0.54824       -0.08382
H          0.96715        2.29029        0.18705
H          0.00352        1.92759       -1.27170
H         -1.18485        1.70722        1.40289
H         -2.09361       -1.24501       -1.17666
H         -1.26799        0.10012       -1.98905
H          0.42087       -1.71186       -1.36669
H         -1.07354       -1.86675        1.19059
H          0.68405       -2.19697        1.12901
H          0.76332        0.19742        2.18188
