19

O	3.094976	0.344991	-0.084941
C	2.117061	-0.687128	-0.028453
C	0.808928	-0.111687	-0.535758
C	-0.407852	-0.979646	-0.220066
C	-0.665667	-0.249915	1.091798
C	0.165647	0.926342	0.431925
C	-1.123059	1.380594	-0.314296
C	-1.609003	-0.04481	-0.073867
O	-2.868195	-0.566584	-0.285636
H	3.92807	-0.012866	0.234638
H	2.412145	-1.546969	-0.651705
H	1.983512	-1.056683	1.00091
H	0.939014	0.225689	-1.571706
H	-0.575346	-2.028446	-0.433434
H	-0.807333	-0.604076	2.102139
H	0.789426	1.643416	0.958422
H	-1.697496	2.101802	0.277106
H	-1.015297	1.744349	-1.342873
H	-3.487275	-0.095982	0.283413
