19

C	-3.080762	0.646452	0.407729
O	-2.302165	-0.30075	-0.297071
C	-1.000457	-0.400492	0.189291
C	-0.031203	-0.907926	-0.832226
C	1.420922	-1.0932	-0.316651
C	1.629985	-0.656348	1.12852
C	1.460932	0.382313	0.074111
O	2.426364	1.355812	-0.088975
C	-0.001944	0.561087	-0.42993
H	-2.656243	1.65768	0.333065
H	-4.077155	0.640112	-0.039838
H	-3.167169	0.385514	1.47333
H	-0.951386	-0.685498	1.239748
H	-0.393979	-1.332951	-1.759077
H	2.153134	-1.707694	-0.824796
H	0.923289	-0.844035	1.929537
H	2.667043	-0.755162	1.436484
H	2.460257	1.592112	-1.023268
H	-0.33622	1.418111	-1.001882
