19

C	2.293104	-0.092607	0.151929
C	1.299703	-1.279536	0.211069
C	0.101258	-0.767114	-0.60679
O	-1.171369	-1.346972	-0.349308
C	-1.938321	-0.512681	0.522721
C	-1.2301	0.821487	0.574295
O	-1.029872	1.44259	-0.709299
C	0.032987	0.678953	-0.151416
C	1.41845	1.19977	0.173604
H	3.021913	-0.118077	0.965163
H	2.860756	-0.135868	-0.783434
H	1.722125	-2.210978	-0.172612
H	0.975273	-1.461686	1.242433
H	0.292393	-0.867277	-1.682821
H	-2.958059	-0.450107	0.125838
H	-1.988357	-0.9377	1.537389
H	-1.370648	1.497973	1.413171
H	1.746154	1.927819	-0.573771
H	1.445889	1.701327	1.145025
