19

O	1.759946	1.811586	-0.138868
C	1.635216	0.642577	0.075649
C	2.590956	-0.560928	0.011268
C	1.333105	-1.48082	-0.00604
C	0.42071	-0.268477	0.372228
C	-0.85792	-0.050459	-0.413289
C	-2.03354	-1.026348	-0.163119
C	-2.818552	0.250435	0.198417
O	-1.634564	1.065741	0.074849
H	3.270354	-0.592281	-0.843966
H	3.182846	-0.652722	0.927955
H	1.114584	-1.861961	-1.007199
H	1.333573	-2.315853	0.694781
H	0.192315	-0.249068	1.44477
H	-0.620534	0.080822	-1.479429
H	-2.387858	-1.589757	-1.027186
H	-1.872301	-1.710774	0.672401
H	-3.589804	0.539256	-0.527038
H	-3.246082	0.297843	1.206376
