19

C	-1.817035	1.715122	-0.012595
C	-1.69769	0.225072	0.264973
C	-1.813416	-0.751292	-0.931404
O	-0.530181	-1.34986	-0.62259
C	-0.304885	-0.395402	0.406749
C	0.536476	-0.698801	1.576377
C	1.027036	0.331092	0.540467
C	2.144808	-0.050821	-0.349995
O	2.953889	0.725871	-0.797633
H	-1.54868	2.307474	0.868497
H	-1.162477	2.018601	-0.835575
H	-2.84583	1.975324	-0.282301
H	-2.350155	-0.065167	1.094073
H	-2.620671	-1.489114	-0.892427
H	-1.805377	-0.267174	-1.915678
H	0.255246	-0.323743	2.554558
H	1.043975	-1.659166	1.579842
H	1.002345	1.380884	0.814003
H	2.190202	-1.135838	-0.590648
