19

C	1.752897	1.658119	0.164647
C	0.777674	0.56827	-0.123125
O	-0.449134	0.90064	-0.798811
C	-1.163002	-0.030856	0.03863
C	-2.377637	-0.751243	-0.438626
C	-2.480227	0.326252	0.637775
C	0.093879	-0.500977	0.713946
C	1.090409	-0.888979	-0.358736
O	2.287103	-1.376914	0.17557
H	2.078949	2.136416	-0.766591
H	1.312511	2.428907	0.804275
H	2.630231	1.244129	0.668689
H	-2.743919	-0.497663	-1.427469
H	-2.513972	-1.789251	-0.153975
H	-2.908889	1.279989	0.34963
H	-2.684063	0.022425	1.659511
H	0.222601	-0.783643	1.750095
H	0.739854	-1.369263	-1.274616
H	2.998989	-1.145367	-0.430688
