19

O	2.067486	-1.53708	-0.285431
C	1.234728	-0.685414	-0.070389
C	1.58301	0.662607	0.545956
C	0.733253	1.782609	-0.074013
O	-0.644973	1.507553	0.099276
C	-1.086463	0.405485	-0.671149
C	-2.259795	-0.271746	0.063987
C	-1.243635	-1.249078	0.71501
C	-0.224599	-0.874425	-0.416898
H	1.364962	0.623544	1.620967
H	2.655475	0.838067	0.42614
H	0.925891	2.738246	0.421023
H	0.975564	1.903431	-1.142528
H	-1.222965	0.704678	-1.719652
H	-2.839708	0.379786	0.719903
H	-2.931842	-0.781073	-0.631339
H	-0.913452	-0.901026	1.69593
H	-1.514427	-2.303318	0.785812
H	-0.298594	-1.586346	-1.242032
