19
../xyz/dsC7O2H10nsd_1993.xyz
C          2.01357        1.19949       -0.22703
C          1.01307        0.13308        0.14240
C          1.41854       -1.31970        0.21868
C          0.42396       -0.88206       -0.82754
C         -1.04217       -0.89834       -0.39489
O         -1.65410        0.30312       -0.86850
C         -1.17630        1.31735        0.03548
C         -0.23631        0.50380        0.96044
O         -0.97771       -0.72691        1.00997
H          2.55271        1.55803        0.65811
H          2.75811        0.80930       -0.92728
H          1.54218        2.06745       -0.70047
H          2.41896       -1.54139       -0.13797
H          1.07695       -1.93555        1.04204
H          0.66121       -0.88750       -1.88405
H         -1.66222       -1.75441       -0.65919
H         -0.67075        2.11152       -0.52153
H         -2.02146        1.74325        0.58761
H         -0.08731        0.89792        1.96582
