19

C	-2.582391	0.051172	-0.833516
C	-1.396171	-0.682547	-0.248523
C	-1.076826	-0.69188	1.187705
C	-0.099928	0.042216	0.239459
C	-0.140149	1.521726	0.322027
O	0.763084	2.283429	0.06857
C	1.167748	-0.723669	-0.074026
C	2.426	0.021885	-0.449153
O	1.147901	-1.93772	-0.025381
H	-3.4343	-0.634709	-0.892723
H	-2.895003	0.905534	-0.228354
H	-2.37481	0.409147	-1.846851
H	-1.121244	-1.594528	-0.770279
H	-1.65573	-0.058553	1.853076
H	-0.670244	-1.596354	1.623594
H	-1.119161	1.91894	0.671061
H	2.730937	0.694722	0.35691
H	3.209125	-0.707844	-0.659071
H	2.252853	0.66455	-1.31671
