19
../xyz/dsC7O2H10nsd_3823.xyz
O         -2.68231       -0.48095        0.03402
C         -1.34483       -0.32860       -0.37222
C         -0.82878        1.08533       -0.75496
C          0.47536        0.78594        0.01611
O          0.89151        1.89106        0.79345
C          1.60110        0.14265       -0.75548
C          1.76184       -1.14651       -0.44923
C          0.74498       -1.65198        0.55444
C         -0.20941       -0.45779        0.69128
H         -2.85870        0.16693        0.72438
H         -1.20379       -1.04800       -1.18432
H         -0.76111        1.34342       -1.81425
H         -1.38974        1.86667       -0.23083
H          1.71927        1.65024        1.22462
H          2.21500        0.71152       -1.44633
H          2.52866       -1.79066       -0.86792
H          0.22531       -2.54903        0.19391
H          1.22713       -1.93831        1.49883
H         -0.57711       -0.26795        1.70253
