19

C	2.93803	-0.525034	-0.256752
C	1.614023	-0.190381	0.401496
O	1.26558	1.212594	0.229815
C	0.070449	0.88722	-0.497067
C	-1.161653	0.793729	0.426237
C	-2.440699	0.341715	-0.297106
O	-2.093634	-1.056095	-0.159298
C	-0.900446	-0.741514	0.581834
C	0.334768	-0.645022	-0.331894
H	3.743186	0.063282	0.194214
H	3.171997	-1.587428	-0.126255
H	2.908345	-0.302815	-1.327884
H	1.644191	-0.453046	1.468803
H	-0.017869	1.441296	-1.436355
H	-1.235738	1.518818	1.234861
H	-3.372494	0.574316	0.232835
H	-2.544899	0.644795	-1.347309
H	-0.82595	-1.301597	1.518887
H	0.426837	-1.373882	-1.13642
