19

C	-1.254221	2.01648	-0.315663
C	-0.983207	0.692269	0.403765
C	-1.281397	-0.541403	-0.443165
O	-1.298214	-1.751041	0.330423
C	-0.138893	-1.469737	-0.4567
C	0.995466	-0.901573	0.363911
C	2.046957	-0.116794	-0.440495
O	1.425404	1.140558	-0.108087
C	0.498697	0.504395	0.809175
H	-0.637043	2.108048	-1.211902
H	-2.307919	2.089564	-0.602908
H	-1.022337	2.867045	0.332311
H	-1.60446	0.635987	1.305809
H	-2.01292	-0.49713	-1.247486
H	0.057661	-2.162289	-1.273381
H	1.363366	-1.594766	1.121743
H	3.068427	-0.182313	-0.044927
H	2.072394	-0.293231	-1.523352
H	0.704892	0.811124	1.840443
