19

C	2.919778	-1.217659	0.640142
C	2.258919	-0.281826	-0.391892
C	3.008171	1.062032	-0.496583
C	0.8468	-0.069248	-0.074045
C	-0.306742	0.107424	0.232637
C	-1.721656	0.336861	0.501573
O	-2.091057	1.710497	0.433835
C	-2.554469	-0.453211	-0.525868
O	-3.13295	-1.476888	-0.290434
H	2.905315	-0.764169	1.635753
H	2.396724	-2.175634	0.695208
H	3.961393	-1.406596	0.362542
H	2.309882	-0.772658	-1.373722
H	4.052474	0.888276	-0.773407
H	2.554757	1.71046	-1.250951
H	2.98951	1.589209	0.462009
H	-2.00029	-0.025448	1.496927
H	-1.500896	2.142406	-0.192729
H	-2.581619	0.039042	-1.524617
