19

C	2.867045	-1.015112	-0.103554
C	1.655199	-0.145593	-0.354626
C	0.941018	0.496935	0.808553
C	0.107429	1.726429	0.506444
O	-0.673319	1.397396	-0.650631
C	-0.88737	-0.011091	-0.673293
C	-2.228162	-0.369824	-0.0321
O	-2.504737	-1.456447	0.404366
C	0.288927	-0.638844	0.048301
H	3.012533	-1.736902	-0.914388
H	3.777859	-0.411745	-0.024742
H	2.76118	-1.580557	0.828334
H	1.693289	0.444323	-1.268631
H	1.320744	0.358418	1.814422
H	-0.540447	1.968025	1.363559
H	0.687549	2.619466	0.2513
H	-0.956075	-0.300386	-1.733112
H	-2.949652	0.478968	-0.020053
H	0.152954	-1.624597	0.475072
