19

C	-3.032688	-0.422071	-0.341068
C	-1.602277	-0.80589	0.051086
C	-0.814146	0.370673	0.615727
C	-0.377925	1.530716	-0.343864
C	1.088833	1.31467	0.074723
O	1.771305	0.368246	-0.810385
C	1.469609	-0.695474	0.015319
O	1.776162	-1.834079	-0.135396
C	0.689139	0.152048	1.014663
H	-3.573659	-1.281908	-0.746659
H	-3.595142	-0.050815	0.522976
H	-3.040475	0.364115	-1.103858
H	-1.625585	-1.61003	0.797311
H	-1.077705	-1.217397	-0.819787
H	-1.346109	0.782907	1.478931
H	-0.547971	1.361747	-1.409736
H	-0.780154	2.508546	-0.070617
H	1.736604	2.150728	0.331413
H	0.947189	0.050746	2.066766
