19
../xyz/dsC7O2H10nsd_1499.xyz
C         -1.76618        0.14745        1.27113
C         -0.96889       -0.08338       -0.00000
C         -1.76621        0.14760       -1.27109
O         -0.41061       -1.46579       -0.00009
C          0.88358       -1.00637        0.00002
O          1.89028       -1.64384       -0.00003
C          0.47744        0.43344        0.00001
C          1.14227        1.55364        0.75087
C          1.14228        1.55366       -0.75083
H         -2.64854       -0.49925        1.29145
H         -1.15934       -0.06493        2.15470
H         -2.10652        1.18687        1.32529
H         -2.64855       -0.49910       -1.29147
H         -2.10656        1.18703       -1.32511
H         -1.15938       -0.06465       -2.15469
H          0.49823        2.26095        1.26272
H          2.06465        1.31645        1.26969
H          0.49825        2.26097       -1.26267
H          2.06467        1.31647       -1.26964
