19

C	-2.446383	-0.456657	0.630629
C	-1.18664	-0.610803	-0.223713
C	0.119412	-1.012958	0.517128
O	1.041958	-1.712705	-0.336464
C	1.730193	-0.493348	-0.682283
C	0.786634	0.372772	0.195827
C	1.386852	1.37921	1.150375
C	-0.506858	0.739888	-0.551083
O	-0.88878	1.748463	-1.07282
H	-2.24734	0.123	1.538688
H	-3.223393	0.067778	0.067764
H	-2.834002	-1.434252	0.932454
H	-1.379124	-1.238675	-1.099175
H	0.03286	-1.452761	1.513785
H	2.764594	-0.499925	-0.315507
H	1.733359	-0.296784	-1.760788
H	1.780389	2.237751	0.595488
H	0.640427	1.760075	1.854388
H	2.207554	0.939099	1.725907
