19

C	-2.287656	-1.499083	3.1e-05
C	-1.033257	-0.70077	-1e-05
C	-0.774724	0.637519	-8.7e-05
C	-1.727172	1.790531	-8.2e-05
C	0.659328	0.743042	4.1e-05
O	1.290575	1.952567	7.5e-05
C	1.174488	-0.516833	0.000104
C	2.553181	-1.068106	-0.000117
O	0.131495	-1.412253	7.2e-05
H	-2.352442	-2.145859	0.882934
H	-3.157741	-0.839098	-0.000156
H	-2.352253	-2.14618	-0.882647
H	-2.766701	1.452469	-0.000738
H	-1.582034	2.427942	0.879549
H	-1.581146	2.428684	-0.87902
H	2.242635	1.812282	0.00027
H	2.749396	-1.687382	-0.883962
H	3.288453	-0.256514	-0.000763
H	2.750153	-1.686656	0.884076
