19

O	1.773181	-0.982619	-1.117127
C	1.989004	-0.093039	-0.026637
C	1.403607	1.301018	-0.268379
O	0.018768	1.216906	0.028628
C	-0.251277	0.069963	0.842216
C	-1.217155	-0.874232	0.096797
C	-2.506848	-0.263081	-0.194265
C	-3.575203	0.240761	-0.41611
C	1.119284	-0.576329	1.135771
H	2.154483	-0.590152	-1.908925
H	3.055577	-0.048604	0.233148
H	1.899869	2.038669	0.383179
H	1.523091	1.635216	-1.306478
H	-0.736331	0.4129	1.764012
H	-0.724382	-1.199028	-0.825618
H	-1.369069	-1.770844	0.712413
H	-4.515602	0.687939	-0.621864
H	1.524591	-0.204233	2.080792
H	1.083717	-1.666524	1.180982
