19
../xyz/dsC7O2H10nsd_4812.xyz
C         -2.23042       -1.83604        0.07692
O         -1.08373       -1.16951       -0.41492
C         -0.84177        0.07727        0.20295
C          0.59356        0.50540       -0.12693
C          1.63251       -0.50484        0.40052
C          2.99866       -0.11975        0.07288
C          4.11548        0.22084       -0.21241
C         -1.80714        1.13738       -0.32562
O         -2.10607        2.14022        0.26634
H         -3.14979       -1.25205       -0.07799
H         -2.31560       -2.77619       -0.47199
H         -2.13865       -2.05368        1.15139
H         -0.96702        0.01108        1.29587
H          0.70018        0.60136       -1.21302
H          0.76987        1.49302        0.30887
H          1.52754       -0.59854        1.48956
H          1.40887       -1.49164       -0.01806
H          5.10735        0.50953       -0.45756
H         -2.18961        0.90987       -1.34823
