19

O	0.23455	-0.300455	1.468747
C	-0.051837	-0.084017	0.091764
C	-0.870344	1.230222	-0.08121
C	-2.300594	0.745929	-0.065023
C	-2.378078	-0.571817	-0.256571
C	-1.012202	-1.19349	-0.431711
C	1.267858	-0.051856	-0.648876
C	2.526001	-0.535515	-0.070828
O	2.254317	0.865602	-0.18408
H	-0.599172	-0.236104	1.947067
H	-0.616084	1.936297	0.715367
H	-0.637138	1.730819	-1.030917
H	-3.146849	1.413345	0.054116
H	-3.296234	-1.145511	-0.316166
H	-0.861554	-2.117318	0.136167
H	-0.82605	-1.433109	-1.488339
H	1.156491	-0.06998	-1.734741
H	2.523155	-0.922935	0.943679
H	3.307673	-0.913413	-0.72883
