19

C	-3.427079	-0.999589	-0.282476
O	-2.095695	-0.832267	0.155193
C	-1.499252	0.391067	-0.255599
C	-1.953054	1.58411	0.60459
C	-0.047798	0.231985	-0.192764
C	1.155591	0.151684	-0.146228
C	2.601425	0.042213	-0.088718
C	3.130693	-1.256593	0.484002
O	3.322008	0.9377	-0.475862
H	-3.730261	-2.007016	0.011164
H	-4.119861	-0.27999	0.176738
H	-3.508426	-0.909632	-1.376949
H	-1.769364	0.591498	-1.307169
H	-1.699686	1.404504	1.652055
H	-1.458288	2.500461	0.272767
H	-3.03347	1.726601	0.520464
H	2.767371	-2.103721	-0.107623
H	4.221491	-1.238114	0.483192
H	2.756847	-1.397323	1.503874
