19
../xyz/dsC7O2H10nsd_5939.xyz
C         -3.28663        0.07465       -0.17775
O         -1.94086       -0.33773       -0.13099
C         -1.04162        0.73760       -0.06496
C          0.37735        0.22141        0.12830
O          0.56232       -0.68739        1.22395
C          0.70998       -1.20474       -0.10320
C          2.07788       -1.68107       -0.51022
C          1.38029        1.25082       -0.02000
C          2.17135        2.14574       -0.15758
H         -3.49495        0.68968       -1.06735
H         -3.90116       -0.82742       -0.21907
H         -3.56430        0.65564        0.71522
H         -1.07664        1.34512       -0.98475
H         -1.28710        1.40531        0.77788
H         -0.12812       -1.82642       -0.41288
H          2.84897       -0.96432       -0.22075
H          2.29600       -2.64248       -0.03384
H          2.12085       -1.82653       -1.59491
H          2.88325        2.92587       -0.27076
