19

C	0.053604	2.257972	-0.008069
C	0.243996	0.771909	-0.000263
C	0.990726	-0.11532	1.042055
C	-0.296421	-0.941789	1.286463
C	-0.89775	-0.352393	-0.012418
O	-2.270451	-0.139133	-0.109337
C	-0.268628	-0.942699	-1.289184
C	1.011735	-0.117547	-1.025632
O	1.818646	-0.706396	0.019385
H	-0.492701	2.594835	0.881088
H	1.013392	2.786475	-0.026823
H	-0.522977	2.575011	-0.884253
H	1.573584	0.231015	1.898011
H	-0.198144	-2.026561	1.382285
H	-0.828576	-0.543471	2.160964
H	-2.601554	0.136719	0.752026
H	-0.165741	-2.02775	-1.372528
H	-0.801605	-0.549303	-2.161048
H	1.615191	0.226465	-1.867812
