19

C	0.20428	2.392362	-0.578258
C	0.125318	1.01126	0.054507
C	1.363397	0.064026	-0.100726
C	2.285734	-0.202227	1.08275
C	0.401029	-1.050952	-0.522064
O	0.487796	-2.236251	-0.639795
C	-0.789861	-0.043785	-0.626022
C	-2.057876	-0.466172	0.066911
O	-2.437456	-0.01323	1.11754
H	0.967021	3.007295	-0.088996
H	0.460643	2.327934	-1.642393
H	-0.751269	2.91983	-0.494045
H	-0.163104	1.08941	1.107064
H	1.951877	0.354174	-0.983242
H	2.868062	0.690342	1.332064
H	1.713549	-0.492474	1.969451
H	2.983925	-1.012263	0.85289
H	-1.003414	0.154491	-1.684666
H	-2.622143	-1.269954	-0.452675
