19
../xyz/dsC7O2H10nsd_0563.xyz
C         -1.92707        0.49869       -0.39103
O         -1.81834       -0.92340       -0.16433
C         -0.65616       -0.74494        0.66382
C         -0.80497        0.80656        0.62862
C          0.43620        1.59370        0.15371
C          1.49144        0.61814       -0.36902
C          1.82621       -0.48448        0.66052
C          0.63088       -1.18365       -0.01638
O          0.82797       -0.37193       -1.20901
H         -1.68113        0.76203       -1.42603
H         -2.92666        0.87414       -0.14123
H         -0.76811       -1.23769        1.63905
H         -1.20188        1.21454        1.55917
H          0.15329        2.29192       -0.64248
H          0.86364        2.19361        0.96573
H          2.31614        1.11365       -0.88803
H          2.77584       -0.97822        0.45111
H          1.75062       -0.24138        1.72391
H          0.66210       -2.25401       -0.23592
