19

O	-2.635292	-0.257132	0.284687
C	-1.482167	-0.128017	-0.027188
C	-0.891494	1.233247	-0.388535
C	0.436052	1.687867	0.24843
C	1.570835	0.658929	0.189334
C	1.297296	-0.578258	1.092936
C	0.698027	-1.293873	-0.140605
C	1.476479	-0.295716	-1.038462
O	-0.731446	-1.253402	-0.184369
H	-0.782359	1.228851	-1.480113
H	-1.678325	1.953714	-0.159274
H	0.741551	2.604234	-0.269257
H	0.265398	1.968108	1.295057
H	2.531828	1.155861	0.343036
H	2.218999	-1.062527	1.425286
H	0.632204	-0.452009	1.952095
H	0.923187	-2.352387	-0.272844
H	2.450923	-0.719279	-1.295952
H	1.000329	0.054636	-1.956036
