19
../xyz/dsC7O2H10nsd_4114.xyz
C          2.15349        0.88046        0.01951
C          1.42193       -0.46333       -0.05019
C          0.58920       -0.76054        1.22827
C         -0.89759       -0.38783        1.03238
C         -1.43897       -1.21887       -0.17547
C         -0.73114       -0.19089       -1.10869
O          0.63713       -0.52445       -1.25799
C         -0.97494        0.80458        0.06375
O         -1.31266        1.94897        0.14730
H          2.68051        1.06160       -0.92077
H          1.46720        1.71434        0.19255
H          2.88700        0.86977        0.83275
H          2.17070       -1.25196       -0.17650
H          0.64509       -1.82296        1.48862
H          1.01450       -0.19898        2.06575
H         -1.45501       -0.34881        1.96899
H         -1.07774       -2.24549       -0.26319
H         -2.52748       -1.18241       -0.26122
H         -1.13232        0.02717       -2.09893
