19

O	-2.502845	-1.098124	0.015198
C	-2.246035	-0.138893	-0.677617
C	-1.196026	0.857319	-0.375214
C	-0.825593	1.099652	1.085035
C	0.146227	0.391582	0.217659
C	0.509436	-1.08994	0.372381
C	2.037353	-1.064801	0.189839
O	2.29489	0.035609	-0.674294
C	1.44139	1.077307	-0.241077
H	-2.805231	0.042758	-1.622001
H	-1.151185	1.704363	-1.052974
H	-0.621997	2.125942	1.374948
H	-1.386506	0.51178	1.804279
H	0.205227	-1.499617	1.337495
H	0.038771	-1.697278	-0.403454
H	2.544759	-0.919595	1.157878
H	2.441489	-1.963613	-0.281069
H	1.893665	1.626404	0.603189
H	1.304135	1.775623	-1.071559
