19
../xyz/dsC7O2H10nsd_3907.xyz
C         -2.95998       -0.26768        0.28271
C         -1.61347       -0.36218       -0.42227
C         -0.51518       -1.35206        0.09431
C          0.55249       -0.22826        0.03381
C          1.66071        0.02788        1.07098
O          2.69182        0.00213        0.06442
C          1.73243       -0.26141       -0.97199
C         -0.59435        0.76517       -0.18305
O         -0.67663        1.95593       -0.07810
H         -2.83018       -0.15603        1.36424
H         -3.52126        0.59967       -0.07700
H         -3.56278       -1.16358        0.10467
H         -1.75779       -0.48377       -1.50394
H         -0.70841       -1.68237        1.11950
H         -0.32128       -2.22839       -0.52772
H          1.59800        1.00181        1.57146
H          1.78917       -0.76553        1.81860
H          1.72655        0.52310       -1.73872
H          1.89058       -1.23817       -1.44865
