19
../xyz/dsC7O2H10nsd_5248.xyz
O         -2.68041        0.23647        0.28844
C         -1.77056       -0.46523       -0.55058
C         -0.38832        0.03970       -0.25855
C          0.03031        1.51923       -0.20891
C          1.28408        0.98247        0.53198
C          1.99267        0.20072       -0.59424
C          0.85558       -0.83110       -0.71818
O          0.90973       -1.46982        0.59407
C          0.37234       -0.22642        1.06118
H         -3.56562       -0.09669        0.11543
H         -1.80288       -1.54960       -0.36045
H         -2.01065       -0.30717       -1.61561
H          0.18905        2.06868       -1.14213
H         -0.65024        2.07528        0.43991
H          1.87804        1.60780        1.19535
H          2.16143        0.80761       -1.48800
H          2.92087       -0.29216       -0.29840
H          0.83001       -1.53502       -1.55003
H         -0.04114       -0.22805        2.06772
