19
../xyz/dsC7O2H10nsd_0117.xyz
C          0.69709        0.17020        1.51145
C          0.48208        0.80945        0.15637
C          1.78061        0.72750       -0.66614
C          1.75503       -0.84028       -0.54452
C          0.49239       -0.70431        0.30903
O         -0.66219       -1.46924        0.19771
C         -1.66291       -0.73635       -0.49726
O         -1.89483        0.53376        0.04766
C         -0.82320        1.45327       -0.22147
H          1.66830        0.24158        1.99553
H         -0.15738        0.19704        2.17793
H          1.65719        1.06489       -1.69834
H          2.64696        1.23733       -0.23370
H          1.55609       -1.31752       -1.50670
H          2.61393       -1.33173       -0.07708
H         -1.38470       -0.64357       -1.56275
H         -2.58669       -1.30743       -0.39240
H         -0.81807        1.70841       -1.29403
H         -1.06605        2.35795        0.34384
