19
../xyz/dsC7O2H10nsd_2450.xyz
O          2.43378       -0.02957       -0.09104
C          1.03942        0.03205       -0.01075
C          0.47763        1.44561       -0.01704
O         -0.94863        1.48433        0.01332
C         -1.57277        0.20089        0.00661
C         -1.08983       -0.62082        1.21946
C          0.30229       -1.03454        0.76468
C          0.29978       -1.03136       -0.76596
C         -1.09317       -0.61268       -1.21262
H          2.79354        0.24055        0.76170
H          0.86082        1.99855        0.85546
H          0.83593        1.96975       -0.91424
H         -2.64510        0.40319        0.00917
H         -1.10642       -0.01388        2.13000
H         -1.72621       -1.49908        1.38081
H          0.88387       -1.76625        1.31361
H          0.88188       -1.75428       -1.32420
H         -1.10956       -0.00191       -2.12033
H         -1.73016       -1.48960       -1.37651
