19

C	0.470458	1.878582	0.747839
C	0.47282	0.41857	0.301577
C	0.658799	-0.698272	1.369513
C	-0.529572	-1.494685	0.751478
C	-0.896267	-0.237408	-0.031843
C	-2.197058	0.412636	-0.198597
O	-1.519979	-0.209349	-1.302268
C	1.402259	0.241471	-0.88893
O	2.248278	-0.609504	-0.988863
H	0.221439	2.550198	-0.081949
H	-0.263262	2.037692	1.543264
H	1.453393	2.173692	1.130927
H	1.630118	-1.191619	1.341526
H	0.451514	-0.337893	2.379237
H	-0.189847	-2.294094	0.087926
H	-1.2842	-1.89143	1.433628
H	-3.097021	-0.098461	0.141615
H	-2.270096	1.497976	-0.249096
H	1.232936	0.979396	-1.704257
