19
../xyz/dsC7O2H10nsd_5533.xyz
C         -3.01789       -0.62335       -0.31960
O         -2.09627        0.09301        0.47424
C         -0.78129       -0.34978        0.32407
C          0.06638        0.14619       -0.90585
C          0.04317        1.56234       -0.23618
C          0.29971        0.56965        0.95047
C          1.27152       -0.13905       -0.00319
C          2.28691       -1.17509        0.10688
O          2.61135        0.19489       -0.24798
H         -2.98973       -1.70150       -0.09811
H         -4.01358       -0.24067       -0.08441
H         -2.82746       -0.48639       -1.39409
H         -0.70293       -1.42374        0.54916
H         -0.05452       -0.10467       -1.95915
H          0.86762        2.22838       -0.49308
H         -0.91919        2.07033       -0.22622
H          0.43591        0.80098        2.00604
H          2.64710       -1.49166        1.08459
H          2.42507       -1.89958       -0.69440
