19

O	-2.424546	-0.453997	-0.346634
C	-1.344078	-0.202373	0.134177
C	-0.977104	1.203408	0.597278
C	0.082563	1.883387	-0.289441
O	1.142852	1.037807	-0.697795
C	1.774878	0.301798	0.334464
C	1.152118	-1.074518	0.520259
C	0.609625	-1.781388	-0.693342
C	-0.334822	-1.299643	0.389804
H	-1.882917	1.815538	0.600082
H	-0.608261	1.132529	1.627628
H	-0.380904	2.224961	-1.21952
H	0.476655	2.767568	0.235476
H	2.821621	0.181158	0.031022
H	1.77565	0.867388	1.278813
H	1.667125	-1.680315	1.261881
H	0.62201	-1.223846	-1.622526
H	0.751564	-2.850908	-0.795569
H	-0.768067	-2.088584	0.998952
