19

C	-2.310032	0.82733	2e-06
C	-1.484871	-0.447965	0.0
O	-0.639337	-0.5324	-1.166887
C	0.663656	-0.268012	-0.746396
C	1.41426	-1.345574	-3e-06
C	0.663659	-0.268015	0.746394
C	1.382034	1.094607	0.787005
C	1.382025	1.094613	-0.787005
O	-0.639334	-0.5324	1.166889
H	-1.660209	1.707049	1.3e-05
H	-2.945777	0.859962	-0.889263
H	-2.945792	0.85995	0.889257
H	-2.128256	-1.335149	2e-06
H	0.934238	-2.316237	-2e-06
H	2.501349	-1.359658	-5e-06
H	0.751975	1.87974	1.208079
H	2.352753	1.110545	1.290743
H	0.751961	1.879747	-1.208067
H	2.352739	1.110556	-1.290751
