19

C	-2.540681	-0.255973	0.026933
C	-1.050482	-0.084064	-0.047048
O	-0.638889	1.027872	-0.810598
C	0.423726	1.68575	-0.121453
C	1.095885	0.607238	0.744375
C	1.978492	-0.336985	-0.089851
O	1.077344	-1.202477	-0.783893
C	-0.108689	-1.282024	-0.039939
C	-0.098918	-0.299861	1.10671
H	-3.009536	0.595506	0.531487
H	-2.965366	-0.33218	-0.979111
H	-2.799412	-1.166536	0.575739
H	1.092132	2.124969	-0.868852
H	0.024463	2.494978	0.509347
H	1.619524	1.021943	1.607938
H	2.589448	0.182076	-0.834921
H	2.642762	-0.924833	0.561793
H	-0.512282	-2.286501	0.045897
H	-0.385371	-0.517074	2.128235
