19
../xyz/dsC7O2H10nsd_1835.xyz
C          0.38085        2.18142       -0.16099
C          0.46746        0.69771        0.03088
C          0.84794       -0.02464        1.35862
C          0.27806       -1.26314        0.59105
C          1.25837       -1.32485       -0.58755
O          1.35247        0.08057       -0.92881
C         -0.73662       -0.26406        0.00333
C         -1.94743       -0.35835       -0.79599
O         -1.97844        0.03393        0.59903
H          1.34363        2.65781        0.04583
H          0.10024        2.41584       -1.19257
H         -0.37268        2.60140        0.51074
H          1.90707       -0.03101        1.62707
H          0.21995        0.27110        2.20011
H         -0.01572       -2.19067        1.07859
H          2.24728       -1.71188       -0.31480
H          0.87530       -1.89396       -1.44276
H         -2.19925        0.43136       -1.50188
H         -2.38989       -1.33055       -1.00817
