19

O	2.415134	-0.259882	-0.430414
C	1.022065	-0.282286	-0.69109
C	0.411624	1.105762	-0.580107
C	-1.089481	1.136201	-0.310877
C	-1.925408	-0.110349	-0.561899
C	-1.186061	-1.390851	-0.08352
C	0.223833	-1.036988	0.3944
O	0.127192	-0.082412	1.470066
C	-0.116677	1.156283	0.835583
H	2.523279	0.093798	0.46058
H	0.908187	-0.748064	-1.674002
H	0.912739	1.936168	-1.062041
H	-1.57716	2.080957	-0.53348
H	-2.883992	-0.012864	-0.041848
H	-2.162449	-0.175883	-1.629548
H	-1.719432	-1.856532	0.749782
H	-1.127154	-2.136342	-0.883801
H	0.766521	-1.906259	0.771063
H	-0.018516	1.996754	1.511141
