19

C	-3.944963	-0.216597	-0.094698
C	-2.505712	-0.062249	0.062263
C	-1.317114	0.065634	0.208619
C	0.12635	0.239241	0.336224
C	0.591313	1.616081	-0.21066
O	1.90828	1.922157	0.183463
C	0.851405	-0.890355	-0.388848
C	1.59046	-1.938019	0.321224
O	2.28752	-0.865597	-0.326954
H	-4.469859	-0.022664	0.847092
H	-4.340337	0.478232	-0.843716
H	-4.20351	-1.231791	-0.415306
H	0.415488	0.21801	1.395222
H	0.468796	1.624415	-1.306396
H	-0.056133	2.397942	0.196592
H	2.456025	1.153108	-0.019552
H	0.461786	-1.113824	-1.381899
H	1.62255	-1.923563	1.409271
H	1.728363	-2.914767	-0.138127
