19
../xyz/dsC7O2H10nsd_1501.xyz
C          1.34537        0.09069        1.33139
C          0.83853       -0.48856        0.00696
C          1.98767       -0.75159       -0.96192
C         -0.12557       -1.70442        0.25695
C         -1.31218       -0.78745       -0.04002
O         -2.49086       -0.83819        0.15207
C         -0.37338        0.30361       -0.60857
C         -0.68114        1.74737       -0.31427
O          0.10649        2.55583        0.10786
H          2.03344       -0.61912        1.80361
H          1.86400        1.03835        1.17804
H          0.52504        0.27486        2.03337
H          2.71753       -1.44132       -0.52405
H          1.63039       -1.19400       -1.89855
H          2.51231        0.17818       -1.20573
H         -0.03993       -2.48946       -0.50285
H         -0.11015       -2.16957        1.24622
H         -0.39685        0.19733       -1.70445
H         -1.73663        2.02574       -0.52819
