19

C	2.246778	-0.610069	0.214124
C	0.996055	0.24633	0.048891
C	1.331275	1.71912	-0.19027
C	-0.137083	0.07297	1.072761
C	-0.959069	-1.150972	0.554651
O	-0.3129	-1.641163	-0.616882
C	-0.064439	-0.26047	-0.98594
C	-1.210241	0.220483	0.024845
O	-2.261643	1.092071	-0.022879
H	2.801919	-0.313937	1.111695
H	1.98495	-1.666175	0.300451
H	2.920121	-0.490841	-0.642905
H	1.968697	1.831267	-1.075193
H	0.428362	2.319511	-0.340972
H	1.874441	2.141192	0.662156
H	-0.172158	0.377719	2.112007
H	-1.513975	-1.831893	1.186138
H	0.04035	-0.104842	-2.059181
H	-2.956019	0.706372	-0.570492
