19

O	-2.876072	-0.227257	-0.413071
C	-1.735659	0.189085	0.310366
C	-0.944716	-1.049783	0.787115
C	0.176166	-0.763652	-0.254664
C	-0.517054	0.600465	-0.590162
C	0.413953	1.610697	0.013766
C	1.50782	1.057106	0.544423
C	1.575032	-0.435878	0.308031
O	2.653504	-0.78947	-0.557694
H	-3.279898	0.552242	-0.808715
H	-2.003131	0.919118	1.086606
H	-0.607138	-0.990444	1.825119
H	-1.497349	-1.979933	0.645458
H	0.24013	-1.498292	-1.057576
H	-0.801601	0.819256	-1.624852
H	0.185575	2.672392	0.035649
H	2.30889	1.592219	1.042963
H	1.7717	-1.000946	1.227144
H	2.610106	-0.200044	-1.318931
