19

C	0.759039	1.848403	-0.031069
C	0.590824	0.342318	-0.144051
O	-0.122672	-0.059901	-1.352321
C	-1.01529	-0.907476	-0.587076
C	-2.349949	-0.211014	-0.241887
C	-1.729215	0.282478	1.104586
C	-0.395078	-0.430178	0.756554
C	1.962909	-0.32116	-0.211076
O	2.481948	-0.935878	0.683386
H	1.397422	2.221514	-0.839174
H	-0.207296	2.352089	-0.10954
H	1.223164	2.111599	0.925002
H	-1.026401	-1.934368	-0.959971
H	-2.636617	0.559046	-0.961269
H	-3.186687	-0.902022	-0.110489
H	-1.677687	1.363393	1.253414
H	-2.213126	-0.151937	1.9819
H	0.064748	-1.076249	1.501462
H	2.448838	-0.197054	-1.205745
