19
../xyz/dsC7O2H10nsd_0219.xyz
C         -1.97032       -0.03114        0.07960
C         -0.93712        0.07917       -1.07761
C         -0.02033       -1.16213       -1.05228
C          0.83630       -1.03725        0.22251
C          1.85412        0.08615        0.03882
O          1.17402        1.29981       -0.29721
C         -0.22009        1.16706       -0.21169
C         -0.82491        0.42173        1.01670
O          0.01238       -0.69120        1.34381
H         -2.76634        0.71511        0.00655
H         -2.39754       -1.01501        0.28537
H         -1.28606        0.33947       -2.07846
H         -0.61168       -2.08355       -1.04713
H          0.63547       -1.19268       -1.92902
H          1.34075       -1.97056        0.48446
H          2.41374        0.23062        0.97206
H          2.56630       -0.14925       -0.76335
H         -0.64822        2.16191       -0.34436
H         -1.04351        0.95351        1.94471
