19

C	-1.669248	1.229762	-0.860261
C	-1.226449	0.008095	-0.076893
O	-2.40845	-0.533612	0.49364
C	-0.371925	-1.064038	-0.832815
C	0.714794	-1.011171	0.289872
C	-0.08753	0.15745	0.985252
C	1.070125	1.148395	0.673658
C	1.826981	-0.00372	-0.018413
O	2.891785	-0.087468	-0.557502
H	-2.431634	0.938186	-1.589104
H	-2.107394	1.976642	-0.191017
H	-0.837846	1.686607	-1.402313
H	-2.165448	-1.287278	1.042239
H	-0.886375	-2.025199	-0.904924
H	-0.021608	-0.787608	-1.830814
H	1.004729	-1.95339	0.756161
H	-0.42241	0.123694	2.022494
H	0.855512	2.035606	0.072836
H	1.605304	1.47275	1.572939
