19

O	1.636747	-1.584114	0.066421
C	0.699914	-0.542604	0.008929
C	1.301392	0.695733	-0.695752
O	0.443617	1.779382	-0.299361
C	-0.56525	1.194511	0.558328
C	0.243916	0.141779	1.322461
C	-1.485337	0.380463	-0.353757
C	-1.902172	-1.013653	0.040328
C	-0.618676	-0.814688	-0.727311
H	1.189157	-2.368295	0.400521
H	2.326918	0.87942	-0.35207
H	1.305544	0.593308	-1.787098
H	-1.027634	2.003032	1.124692
H	1.080072	0.586424	1.864783
H	-0.325938	-0.496075	1.998519
H	-2.058634	0.920506	-1.097872
H	-1.905134	-1.328127	1.077766
H	-2.721527	-1.431833	-0.535116
H	-0.548459	-1.169738	-1.749963
