19
../xyz/dsC7O2H10nsd_1169.xyz
C         -2.85556       -0.73861        0.73591
C         -1.96735        0.01666       -0.23544
O         -2.28873        1.08292       -0.70845
C         -0.62203       -0.61920       -0.57157
C          0.46735       -0.09717        0.37434
C          0.92432        1.39390        0.27763
C          2.41694        0.94781        0.21456
C          1.92101       -0.49607        0.03909
O          2.42319       -1.51866       -0.32501
H         -3.21959       -1.65583        0.25730
H         -2.29363       -1.05056        1.62331
H         -3.70562       -0.12110        1.02795
H         -0.66558       -1.71062       -0.49570
H         -0.36854       -0.35109       -1.60159
H          0.24384       -0.37931        1.41152
H          0.57775        1.86576       -0.64330
H          0.65011        2.03017        1.11921
H          3.03909        1.33645       -0.59546
H          2.95850        1.07812        1.15732
