19

C	1.247422	1.529796	0.896027
C	0.367932	0.703896	-0.000179
C	-0.57567	1.331834	-1.064181
C	-1.439283	0.079895	-0.918504
C	-0.46444	-1.115259	-0.727401
C	0.94999	-0.547893	-0.739936
O	1.873423	-1.296868	0.020257
C	-0.862107	-0.246486	0.432537
O	-1.402904	-0.616657	1.637469
H	1.927015	2.155132	0.304609
H	0.660832	2.195209	1.5392
H	1.863162	0.887955	1.533571
H	-1.086577	2.225443	-0.691814
H	-0.132068	1.549245	-2.043046
H	-2.4426	-0.103325	-1.282489
H	-0.783225	-2.126693	-0.947062
H	1.437899	-0.359266	-1.702711
H	1.408155	-1.631054	0.796973
H	-1.959822	0.100867	1.960787
