19
../xyz/dsC7O2H10nsd_4816.xyz
C          2.20418        1.86548       -0.00017
O          1.06542        1.11336       -0.36839
C          0.91650       -0.10128        0.34606
C         -0.46462       -0.67119       -0.00823
C         -1.60790        0.28134        0.37441
C         -2.96116       -0.36114        0.16861
O         -3.85961        0.10771       -0.48001
C          1.98346       -1.06405        0.03786
C          2.84967       -1.85610       -0.22153
H          3.13492        1.31999       -0.20402
H          2.18515        2.77999       -0.59666
H          2.18107        2.13380        1.06740
H          0.94483        0.10840        1.43091
H         -0.48469       -0.87416       -1.08384
H         -0.57831       -1.63274        0.50488
H         -1.52700        0.52654        1.44465
H         -1.55871        1.21204       -0.19268
H         -3.08120       -1.34543        0.68265
H          3.61667       -2.55532       -0.44823
