19

O	2.080095	-0.744942	-0.601653
C	1.317315	-1.468715	0.371651
C	0.461666	-0.481739	1.159724
C	-0.644349	0.160233	0.324447
C	-1.106298	1.576361	0.681973
C	-0.277458	1.371622	-0.543202
O	1.026642	1.839898	-0.520488
C	-1.628018	-0.747165	-0.198013
C	-2.440337	-1.520449	-0.637154
H	2.38467	-1.355226	-1.278216
H	0.671861	-2.208466	-0.119236
H	1.993541	-2.001494	1.055111
H	0.017364	-1.012772	2.009156
H	1.109801	0.300834	1.56377
H	-2.15988	1.804429	0.573462
H	-0.610901	2.042626	1.526408
H	-0.784277	1.427604	-1.506427
H	1.59384	1.095294	-0.780361
H	-3.165034	-2.193362	-1.023105
