19
../xyz/dsC7O2H10nsd_4237.xyz
C          2.50393       -0.63542       -0.36435
C          1.47262        0.06105        0.49157
O          1.03628        1.35347       -0.06381
C         -0.31999        1.09428        0.39149
C         -1.61155        1.03176       -0.45691
C         -1.70737       -0.53080       -0.44753
C         -1.27510       -1.05749        0.97348
C          0.00485       -0.39497        0.44183
O         -0.36267       -0.84096       -0.89919
H          2.10121       -0.82765       -1.35994
H          3.39624       -0.00865       -0.45473
H          2.79777       -1.58567        0.09359
H          1.82748        0.20479        1.52179
H         -0.47950        1.58082        1.36148
H         -2.44747        1.55772        0.01137
H         -1.49424        1.37853       -1.48503
H         -2.49860       -1.01572       -1.02016
H         -1.73551       -0.64701        1.87608
H         -1.26059       -2.14768        0.98197
