19
../xyz/dsC7O2H10nsd_4608.xyz
C         -3.72707       -0.36451       -0.62976
C         -2.94007        0.00921        0.63961
C         -1.50903        0.16600        0.40353
C         -0.33318        0.30607        0.18476
C          1.09513        0.41602       -0.05750
O          1.39552        1.75884       -0.36969
C          2.00225       -0.27458        1.01095
O          2.41853       -1.28390        0.07552
C          1.69355       -0.67265       -1.00493
H         -3.36947       -1.31089       -1.04437
H         -4.79157       -0.46890       -0.40020
H         -3.61302        0.40518       -1.39766
H         -3.33828        0.94204        1.05873
H         -3.09698       -0.75734        1.40934
H          2.34389        1.81864       -0.53180
H          2.83435        0.36302        1.34280
H          1.49252       -0.69534        1.88308
H          2.35704       -0.25148       -1.77406
H          0.97969       -1.35783       -1.47244
