19
../xyz/dsC7O2H10nsd_5487.xyz
O          2.57115        0.33076        0.10055
C          1.70424       -0.50988       -0.64245
C          0.52153       -0.99003        0.20540
C         -0.84775       -1.30122       -0.41679
C         -1.64323       -0.02720       -0.67662
C         -0.93969        1.32079       -0.70709
O         -0.15878        1.37008        0.49972
C         -0.21014        0.06946        1.09642
C         -1.56222       -0.57003        0.71587
H          2.04102        1.10359        0.33405
H          1.34278       -0.00885       -1.55268
H          2.30632       -1.36374       -0.97218
H          0.82983       -1.82272        0.84725
H         -1.13739       -2.23075       -0.89349
H         -2.56449       -0.14461       -1.23535
H         -0.28827        1.45866       -1.57857
H         -1.66535        2.14386       -0.69018
H          0.08915        0.15995        2.13873
H         -2.38889       -0.85342        1.35180
