19

O	1.35495	2.126875	-0.03856
C	1.653322	1.003286	-0.353947
C	0.986969	-0.230952	0.176021
C	-0.318757	-0.07399	0.925639
C	-1.442844	0.471237	0.065242
C	-2.176133	-0.442437	-0.884179
C	-2.868572	0.07528	0.352264
C	1.898022	-1.370777	0.435968
O	1.101209	-1.341457	-0.734595
H	2.467021	0.783427	-1.080768
H	-0.602013	-1.052359	1.329494
H	-0.144064	0.593221	1.778068
H	-1.286992	1.491734	-0.268541
H	-2.47849	-0.048355	-1.84797
H	-1.880513	-1.485535	-0.905077
H	-3.642674	0.825606	0.236369
H	-3.048636	-0.622813	1.163836
H	2.971491	-1.268162	0.27881
H	1.603558	-2.089996	1.198975
