19

C	-4.324068	-0.67692	-0.023066
O	-3.324261	0.305026	-0.159735
C	-2.029668	-0.19222	0.083628
C	-1.047418	0.96923	-0.10705
C	0.335544	0.573311	0.119065
C	1.472602	0.219849	0.303079
C	2.824147	-0.199984	0.553496
C	3.959107	0.309266	-0.242436
O	3.469371	-1.008698	-0.44691
H	-4.177835	-1.509473	-0.729114
H	-4.35122	-1.093272	0.99634
H	-5.283179	-0.198353	-0.234684
H	-1.946152	-0.593743	1.106636
H	-1.783691	-1.011837	-0.610657
H	-1.168842	1.365996	-1.122088
H	-1.327368	1.778968	0.577677
H	3.033476	-0.523314	1.572811
H	3.760827	1.015343	-1.046493
H	4.941627	0.383877	0.222446
