19
../xyz/dsC7O2H10nsd_5968.xyz
C          3.49693        0.10681       -0.10869
C          2.06071        0.14226        0.41770
C          1.04748       -0.43485       -0.58447
C         -0.36506       -0.36518       -0.07739
C         -1.03976       -1.42392        0.81921
C         -1.67174       -1.01779       -0.45961
O         -2.40760        0.22082       -0.24669
C         -1.21377        0.88114        0.02591
O         -1.05411        2.04605        0.19696
H          3.59491        0.68858       -1.03184
H          4.19649        0.52340        0.62205
H          3.81568       -0.91852       -0.32842
H          1.99370       -0.41899        1.35802
H          1.77247        1.17317        0.65272
H          1.12028        0.11456       -1.53180
H          1.29971       -1.47880       -0.81079
H         -0.52009       -2.37837        0.82318
H         -1.51147       -1.14783        1.75695
H         -1.95680       -1.62297       -1.30820
