19

C	2.630664	0.171956	-0.412276
C	1.184875	0.007223	-0.078466
O	0.457444	-0.984648	-0.815838
C	-0.392803	-1.251086	0.34421
C	-1.82665	-0.804018	0.077962
C	-1.799417	0.554927	-0.63403
O	-0.951148	1.51683	-0.008069
C	0.260557	1.052538	0.50716
C	0.402771	-0.268196	1.209573
H	3.167108	-0.776713	-0.307733
H	2.74536	0.515965	-1.446443
H	3.096729	0.911985	0.244573
H	-0.310106	-2.300548	0.639302
H	-2.355718	-1.521468	-0.558948
H	-2.362935	-0.745624	1.032597
H	-1.478377	0.403488	-1.671113
H	-2.795125	1.007629	-0.644285
H	0.783972	1.880389	0.977187
H	0.698733	-0.412616	2.24132
