19

O	2.847936	-0.072382	-0.204898
C	1.662845	-0.014973	0.034031
C	0.977856	1.33121	0.256875
C	-0.425505	1.503506	-0.358179
C	-1.48919	0.734036	0.399371
C	-2.519863	-0.093616	-0.342878
C	-1.400461	-0.772164	0.380468
O	-0.408555	-1.348182	-0.414795
C	0.878838	-1.331191	0.177923
H	0.909197	1.475795	1.345556
H	1.673745	2.087748	-0.116304
H	-0.676911	2.569671	-0.358436
H	-0.406161	1.191314	-1.4067
H	-1.805509	1.187468	1.33548
H	-3.520257	-0.177801	0.066091
H	-2.468888	-0.097321	-1.426313
H	-1.618814	-1.329777	1.292206
H	0.818819	-1.577195	1.251768
H	1.472613	-2.106245	-0.311467
