19
../xyz/dsC7O2H10nsd_3712.xyz
O         -1.95767       -0.86647       -0.87436
C         -1.64983        0.42452       -0.41671
C         -1.45551        0.65185        1.06760
C         -0.27631        0.58337        0.13822
C          0.82643        1.64318       -0.06940
C          1.87145        0.51556        0.01493
C          1.59372       -0.51299       -1.06161
C          0.76580       -0.51694        0.19414
O          0.71438       -1.59106        1.06065
H         -2.87956       -1.04430       -0.65946
H         -2.07889        1.23701       -1.00404
H         -1.74188        1.61217        1.48605
H         -1.59711       -0.20174        1.72376
H          0.80409        2.19851       -1.01343
H          0.88223        2.35078        0.76184
H          2.83401        0.58419        0.50504
H          1.17304       -0.21832       -2.02052
H          2.31874       -1.31970       -1.10724
H          0.17714       -2.26965        0.63470
