19

C	1.195127	1.817505	-0.016544
C	1.005507	0.294864	-0.000645
C	1.917425	-0.440567	-1.030946
O	2.842479	-0.825753	0.001176
C	1.927371	-0.42109	1.034234
C	-0.398688	-0.073957	0.006945
C	-1.564028	-0.384091	-0.00163
C	-2.988419	-0.716404	0.022575
O	-3.838661	0.416466	-0.091342
H	0.741173	2.274506	0.867806
H	2.261862	2.062151	-0.025032
H	0.729547	2.256813	-0.903561
H	1.442349	-1.307025	-1.5068
H	2.384437	0.190873	-1.795376
H	1.457067	-1.278571	1.531051
H	2.402045	0.224251	1.782357
H	-3.238949	-1.361503	-0.827026
H	-3.210972	-1.294716	0.933903
H	-3.564881	1.049952	0.580077
