19

C	-2.3053	-0.580982	-0.948593
C	-1.325513	0.154437	-0.019236
C	-1.597146	1.658274	0.006464
O	-1.474455	-0.314266	1.316365
C	0.103101	-0.117514	-0.488639
O	0.65882	-1.355403	-0.043813
C	1.235252	-0.122532	0.457121
C	2.574433	0.189074	0.041542
C	3.697245	0.465695	-0.286105
H	-2.08057	-1.652468	-0.971385
H	-3.327308	-0.449871	-0.5836
H	-2.248352	-0.200873	-1.973961
H	-1.473315	2.096348	-0.988471
H	-2.621476	1.845104	0.340549
H	-0.913646	2.158524	0.697487
H	-1.11075	-1.210093	1.328427
H	0.317352	0.120352	-1.530717
H	1.00053	0.065238	1.502277
H	4.690183	0.706377	-0.576345
