19
../xyz/dsC7O2H10nsd_5454.xyz
O          3.23230       -0.03899       -0.28670
C          2.10232       -0.64535        0.32461
C          0.79973       -0.33496       -0.40042
C          0.30716        1.10410       -0.19678
C         -1.21989        1.09416       -0.30986
C         -0.53793        0.71742        0.99313
C         -0.47319       -0.75073        0.38985
C         -1.64746       -0.35328       -0.55184
O         -2.93324       -0.66150       -0.06373
H          3.13445        0.91454       -0.20292
H          2.29437       -1.72335        0.29257
H          2.01689       -0.35718        1.38490
H          0.86452       -0.69698       -1.43443
H          0.85320        2.02916       -0.34592
H         -1.77437        1.99557       -0.54111
H         -0.60144        1.12472        1.99131
H         -0.51974       -1.68763        0.94330
H         -1.61655       -0.74990       -1.57213
H         -3.02827       -0.23313        0.79575
