19
../xyz/dsC7O2H10nsd_0128.xyz
C         -2.29395       -0.00000       -0.15630
C         -1.07213        0.75611       -0.61060
C         -1.07212       -0.75610       -0.61061
C         -0.06715       -1.12380        0.47502
C          1.35862       -1.18888       -0.08650
O          1.67747        0.00000       -0.79971
C          1.35861        1.18888       -0.08650
C         -0.06715        1.12380        0.47503
O         -0.11043       -0.00001        1.37135
H         -2.54340       -0.00001        0.89919
H         -3.14376       -0.00001       -0.82980
H         -1.08638        1.32601       -1.53150
H         -1.08638       -1.32598       -1.53153
H         -0.30913       -2.01919        1.05616
H          2.05569       -1.34037        0.75269
H          1.48105       -2.01289       -0.79718
H          2.05569        1.34038        0.75268
H          1.48103        2.01290       -0.79718
H         -0.30913        2.01918        1.05619
