19

O	2.112864	-0.567829	-0.74978
C	1.209862	-0.616406	0.348053
C	1.01892	0.768114	0.97489
O	0.274861	1.648454	0.137063
C	-0.836194	1.09748	-0.520097
C	-1.871727	0.13022	-0.001065
C	-1.328036	-0.977739	0.903915
C	-0.141021	-1.195872	-0.088223
C	-0.850715	-0.268797	-1.105639
H	1.802272	0.132764	-1.33514
H	1.68164	-1.268109	1.092574
H	0.540256	0.683105	1.960159
H	1.995176	1.240763	1.112989
H	-1.268587	1.875008	-1.142639
H	-2.925286	0.362705	-0.113635
H	-1.106821	-0.737894	1.948009
H	-1.996128	-1.842852	0.887927
H	-0.02145	-2.22596	-0.424393
H	-1.009409	-0.486527	-2.155118
