19

C	-2.228421	-1.123575	-0.279069
C	-1.519189	0.053459	0.383122
O	-2.054463	1.237725	-0.209647
C	-0.032895	-0.007905	0.232069
C	1.110251	0.830901	0.82367
C	1.702817	1.088936	-0.561725
C	0.974677	-0.215311	-0.972897
O	1.680671	-1.251127	-0.229424
C	1.077591	-0.705026	0.940447
H	-1.89318	-2.06877	0.155853
H	-3.309265	-1.033103	-0.143878
H	-2.017371	-1.136362	-1.352327
H	-1.742159	0.039909	1.464625
H	-1.571298	1.98577	0.156889
H	1.088563	1.477612	1.692638
H	1.254519	1.966545	-1.034116
H	2.790198	1.093925	-0.684783
H	0.762687	-0.486647	-2.004478
H	1.118652	-1.26053	1.86844
