19
../xyz/dsC7O2H10nsd_5346.xyz
O          2.96800       -0.39437        0.51688
C          2.23454        0.38678       -0.42576
C          0.74924        0.25538       -0.24558
C         -0.06651        1.28469        0.00127
C         -1.54024        0.96327        0.14033
C         -1.71702       -0.19009        1.15804
C         -1.38111       -1.03226       -0.09364
C          0.13079       -1.13050       -0.34236
O         -1.91361        0.03807       -0.92886
H          2.73382       -0.07186        1.39377
H          2.52622        1.44691       -0.38455
H          2.53688       -0.00011       -1.40676
H          0.29248        2.30535        0.09676
H         -2.19402        1.83637        0.18053
H         -1.05128       -0.22616        2.02253
H         -2.75805       -0.32081        1.45787
H         -1.90271       -1.97962       -0.25276
H          0.60736       -1.81060        0.37407
H          0.31603       -1.55269       -1.33936
