19
../xyz/dsC7O2H10nsd_2548.xyz
C          2.61942        0.21315       -0.32672
C          1.22862       -0.25192       -0.05184
C          0.49517       -1.16577       -0.69671
C         -0.91671       -1.17450       -0.11930
C         -0.64828       -0.73990        1.33182
C          0.32974        0.39936        1.00828
O         -0.43759        1.47586        0.43163
C         -1.08025        1.10176       -0.77414
O         -1.73762       -0.14600       -0.71765
H          3.07259       -0.32819       -1.16159
H          2.62824        1.28395       -0.56490
H          3.26129        0.08607        0.55424
H          0.79990       -1.73664       -1.56620
H         -1.47230       -2.10405       -0.24762
H         -1.54846       -0.39113        1.84122
H         -0.16607       -1.53388        1.90858
H          0.85894        0.83669        1.85710
H         -1.84854        1.85470       -0.96391
H         -0.35023        1.10061       -1.59704
