19

C	-2.527489	0.674305	-0.26491
C	-1.666775	-0.559664	-0.187099
O	-1.094252	-0.881334	1.09703
C	-0.218225	-0.550323	0.027709
C	0.837672	-1.495334	-0.591518
C	1.80431	-0.303729	-0.640096
C	2.023044	0.212277	0.761044
C	0.764007	0.601303	0.030991
O	0.451664	1.918867	-0.255884
H	-3.495037	0.489929	0.214116
H	-2.043537	1.521703	0.221079
H	-2.713834	0.941045	-1.310636
H	-2.071923	-1.433016	-0.704794
H	1.147495	-2.331887	0.042142
H	0.543122	-1.874503	-1.573296
H	2.474112	-0.062828	-1.454444
H	1.99855	-0.462627	1.613351
H	2.743616	1.021041	0.838774
H	0.458878	2.417867	0.567811
