19
../xyz/dsC7O2H10nsd_0008.xyz
C         -2.31791       -0.55713        1.15925
C         -1.82769        0.24672       -0.05203
O         -2.20282       -0.39235       -1.27424
C         -0.35796        0.51487       -0.00330
C          0.40544        1.63679        0.03714
C          1.77216        1.20055        0.05351
C          1.74871       -0.15829        0.01496
C          2.80456       -1.20398       -0.00118
O          0.45182       -0.59132       -0.01533
H         -1.79188       -1.51534        1.22066
H         -2.13646       -0.01206        2.09089
H         -3.38928       -0.75156        1.06315
H         -2.33372        1.21744       -0.07179
H         -1.65988       -1.18446       -1.35521
H          0.04140        2.65244        0.05014
H          2.65602        1.81869        0.08527
H          3.79000       -0.73431        0.03255
H          2.71767       -1.87945        0.85773
H          2.75026       -1.81912       -0.90691
