19
../xyz/dsC7O2H10nsd_1597.xyz
O          0.59296        1.79034        0.26655
C          0.01928        0.53003        0.02408
C          0.97798       -0.59938       -0.20751
C          2.38965       -0.33219       -0.67464
C          2.13760       -0.82872        0.72726
C         -1.25530        0.40863        0.84183
C         -1.93662       -0.92158        0.55987
O         -1.86922       -0.69702       -0.87965
C         -1.32135        0.60535       -0.66126
H          0.95209        2.11260       -0.56783
H          0.50352       -1.47808       -0.62933
H          2.82054       -1.01083       -1.40217
H          2.71550        0.69701       -0.77709
H          2.40772       -1.84881        0.97666
H          2.27247       -0.11307        1.53103
H         -1.46689        1.09303        1.65154
H         -1.42231       -1.84015        0.86394
H         -2.98123       -0.95553        0.88829
H         -1.65869        1.42447       -1.28800
