19
../xyz/dsC7O2H10nsd_4483.xyz
O         -2.53472       -0.39220        0.03591
C         -1.26899        0.08369        0.47470
C         -0.81502        1.29735       -0.35095
C          0.63042        1.74646       -0.05658
C          1.60527        0.60148        0.16458
C          1.59615       -0.74536       -0.51794
O          0.30083       -1.15745       -0.95762
C         -0.20689       -1.01019        0.41161
C          1.18773       -0.63442        0.93011
H         -2.43346       -0.64835       -0.88837
H         -1.41344        0.35811        1.52761
H         -0.89159        1.01217       -1.40497
H         -1.51044        2.12612       -0.18820
H          0.98023        2.39409       -0.86938
H          0.64331        2.36399        0.85175
H          2.61974        0.91545        0.40458
H          2.45345       -1.19695       -1.00431
H         -0.59665       -1.96638        0.77173
H          1.64791       -0.99514        1.83997
