19
../xyz/dsC7O2H10nsd_5153.xyz
C         -2.53394        0.48910        0.09041
C         -1.71563       -0.65699       -0.52243
C         -0.28393       -0.65297       -0.06750
C          0.22817       -1.30352        1.21037
C          0.83319       -1.67166       -0.10707
O          1.81751       -0.70390       -0.50058
C          0.79660        0.31607       -0.58778
C          1.08943        1.55936        0.22488
O          0.40621        2.55081        0.17421
H         -3.55816        0.48705       -0.29397
H         -2.57999        0.39655        1.18032
H         -2.08016        1.45755       -0.14034
H         -2.16953       -1.62158       -0.26384
H         -1.74526       -0.58675       -1.61779
H          0.81695       -0.76564        1.94717
H         -0.45810       -2.03662        1.62467
H          0.90832       -2.66791       -0.52680
H          0.61427        0.60148       -1.63210
H          1.97853        1.48422        0.88847
