19

O	-1.729852	-0.339686	1.290985
C	-1.634846	-0.1003	-0.115715
C	-1.122434	1.33448	-0.408674
C	0.406185	1.486727	-0.530037
C	1.198439	0.714514	0.508221
O	2.349534	0.013299	0.023915
C	1.224722	-0.76197	0.458453
C	0.42754	-1.485955	-0.572833
C	-0.847278	-1.190094	-0.831515
H	-0.836525	-0.368079	1.647013
H	-2.674713	-0.151849	-0.451785
H	-1.573922	1.698233	-1.339072
H	-1.518511	1.962998	0.396385
H	0.734001	1.119494	-1.505678
H	0.674274	2.54823	-0.48648
H	1.352546	1.198139	1.474246
H	1.427257	-1.315997	1.378902
H	0.924913	-2.299631	-1.095611
H	-1.380747	-1.76486	-1.584528
