19

O	0.482719	2.036527	-0.371558
C	0.777412	0.835163	0.317137
C	2.21028	0.406408	0.131788
C	2.307488	-0.906514	-0.06692
C	0.954034	-1.584332	-0.086851
C	-0.014665	-0.385648	-0.228324
C	-1.363884	-0.527358	0.424238
C	-2.613161	-0.622655	-0.340395
O	-2.228303	0.614797	0.267242
H	-0.468613	2.172566	-0.282221
H	0.572399	0.968822	1.395919
H	3.031802	1.108027	0.214454
H	3.234718	-1.459694	-0.168196
H	0.847124	-2.314743	-0.896442
H	0.779756	-2.135529	0.849423
H	-0.157598	-0.174201	-1.294214
H	-1.360691	-0.926029	1.440801
H	-2.571348	-0.641219	-1.428544
H	-3.487895	-1.098982	0.099507
