19
../xyz/dsC7O2H10nsd_3758.xyz
O          2.26393       -0.99348       -0.65665
C          1.74414        0.28757       -0.50680
C          1.66429        0.92763        0.85573
C          0.39473        0.42807        0.19520
O         -0.06887       -0.78584        0.74200
C         -1.16099       -1.33816       -0.00099
C         -2.36767       -0.39969        0.02280
C         -1.93356        0.99408       -0.34692
C         -0.65035        1.35121       -0.28247
H          1.72501       -1.56359       -0.08967
H          1.95687        0.91096       -1.36930
H          2.02018        0.33888        1.69475
H          1.79847        1.99996        0.95243
H         -0.84996       -1.52309       -1.03913
H         -1.38341       -2.29857        0.47081
H         -3.12615       -0.76804       -0.67934
H         -2.83554       -0.41059        1.01667
H         -2.68728        1.70128       -0.67948
H         -0.32225        2.34306       -0.57987
