19

O	1.342716	1.779791	-0.094766
C	1.450608	0.42025	-0.364874
C	1.185672	-0.599566	0.773318
C	0.886061	-1.636128	-0.33125
C	0.256645	-0.381786	-1.01494
C	-0.833317	-0.064737	-0.01192
C	-1.886274	0.988143	-0.136849
C	-2.262195	-0.489262	-0.076936
O	-0.123276	-0.188711	1.234354
H	0.651924	1.872642	0.573868
H	2.390342	0.247869	-0.892258
H	1.837398	-0.762873	1.629708
H	1.782235	-2.001506	-0.835347
H	0.217445	-2.45645	-0.067912
H	0.007348	-0.331964	-2.073234
H	-2.101614	1.583854	0.744175
H	-1.988329	1.516186	-1.079052
H	-2.711796	-0.845567	0.843167
H	-2.623671	-0.972308	-0.979109
