19
../xyz/dsC7O2H10nsd_2238.xyz
C          2.31638       -0.70887       -0.25044
C          0.83219       -0.55041       -0.09717
C         -0.21969       -1.59387       -0.49027
C         -1.19422       -0.93296        0.53567
O         -2.05122        0.02065       -0.09110
C         -1.20326        1.01330       -0.66709
C          0.16397        0.81123       -0.00795
O          1.03360        1.89313        0.07019
C         -0.00238       -0.15985        1.13454
H          2.66159       -1.63427        0.22414
H          2.59601       -0.75501       -1.30978
H          2.84910        0.13337        0.19668
H         -0.56358       -1.64219       -1.52938
H          0.08888       -2.59205       -0.16410
H         -1.80513       -1.58364        1.15880
H         -1.16853        0.91122       -1.76042
H         -1.60136        2.00974       -0.43244
H          0.65543        2.54113        0.67542
H          0.27065        0.03002        2.16457
