19

O	-2.837954	-0.694474	0.042257
C	-1.706225	-0.282528	-0.043682
C	-1.371841	1.204407	0.112286
C	0.052902	1.553536	-0.343196
C	1.046652	0.708962	0.448405
O	2.286529	0.437396	-0.241665
C	2.10337	-0.988324	-0.10822
C	0.704125	-0.803507	0.518303
C	-0.515377	-1.198115	-0.320629
H	-2.133444	1.780226	-0.421444
H	-1.502352	1.448699	1.176132
H	0.176228	1.331344	-1.408684
H	0.252704	2.621938	-0.217688
H	1.237562	1.162019	1.431154
H	2.135593	-1.500305	-1.078211
H	2.854168	-1.435983	0.555016
H	0.608714	-1.195334	1.533118
H	-0.27637	-1.088002	-1.388294
H	-0.823039	-2.234569	-0.165441
