19
../xyz/dsC7O2H10nsd_3127.xyz
C         -1.78932        1.49206       -0.69341
C         -0.99997        0.72093        0.37894
C          0.48361        1.03863        0.38699
C          1.36155        0.24544        1.33957
C          1.27175       -0.17512       -0.09233
O          2.44496       -0.05801       -0.83524
C          0.29301       -1.28490       -0.42788
C         -1.06818       -0.79335        0.08560
O         -2.05062       -1.47473        0.22066
H         -1.35868        1.34266       -1.68981
H         -2.82836        1.15347       -0.71632
H         -1.77771        2.56549       -0.48175
H         -1.47469        0.89487        1.35227
H          0.81428        2.03532        0.11566
H          2.29634        0.70885        1.63262
H          0.89540       -0.36494        2.10859
H          2.20629        0.14306       -1.74739
H          0.21903       -1.41576       -1.51703
H          0.53870       -2.26328       -0.00512
