19

O	-1.781367	1.682507	-0.346952
C	-1.453291	0.549143	-0.140508
C	-2.207925	-0.774026	0.054919
C	-0.865241	-1.398032	0.546169
C	-0.088251	-0.112222	0.111315
C	0.892262	0.565613	1.092946
C	2.28066	0.396946	0.420802
O	2.092372	-0.509844	-0.658201
C	0.791125	-0.261737	-1.150676
H	-3.04523	-0.742846	0.756675
H	-2.57125	-1.18118	-0.894558
H	-0.846543	-1.555981	1.626834
H	-0.557562	-2.321333	0.051951
H	0.636492	1.621188	1.21984
H	0.850399	0.089214	2.075312
H	2.646729	1.364657	0.045827
H	3.040883	-0.025342	1.082596
H	0.758543	0.671966	-1.736988
H	0.503469	-1.09576	-1.796067
