19
../xyz/dsC7O2H10nsd_5999.xyz
C         -3.56781       -0.05938        0.15283
C         -2.08565       -0.03982        0.53173
C         -1.17781       -0.50343       -0.62544
C          0.27548       -0.44973       -0.28001
C          1.17139       -1.41836       -0.07967
C          2.50208       -0.81276        0.25202
O          2.28677        0.59652        0.22183
C          0.97725        0.85322       -0.09383
O          0.54209        1.96761       -0.19029
H         -4.19292        0.26848        0.98886
H         -3.76752        0.60690       -0.69343
H         -3.89418       -1.06582       -0.13305
H         -1.78673        0.97171        0.82447
H         -1.91340       -0.68563        1.40161
H         -1.44908       -1.52103       -0.92860
H         -1.35501        0.15048       -1.48874
H          1.01104       -2.48753       -0.14052
H          2.86575       -1.09812        1.24761
H          3.28155       -1.07092       -0.47639
