19
../xyz/dsC7O2H10nsd_0458.xyz
C          2.50609       -0.45080       -0.27096
O          1.96905        0.87441       -0.34227
C          1.52092        0.02047        0.70931
C          0.08904       -0.46705        0.70655
O         -0.28792       -1.06864       -0.54905
C         -1.48823       -0.33728       -0.88513
C         -1.09197        1.13424       -0.62878
C         -1.02513        0.59195        0.83776
C         -2.25784       -0.29043        0.45660
H          2.17247       -1.12186       -1.05778
H          3.55723       -0.51197        0.00600
H          1.87819        0.31161        1.69956
H          0.01182       -1.21760        1.50849
H         -1.89279       -0.71886       -1.82081
H         -0.17466        1.49257       -1.09136
H         -1.92104        1.82987       -0.76945
H         -1.00482        1.23822        1.71440
H         -2.40671       -1.23601        0.98441
H         -3.18586        0.28122        0.40508
