19

C	-2.41126	-1.004587	-0.057224
C	-1.089285	-0.291598	-0.05173
O	-1.163794	1.00643	-0.622146
C	-0.174409	1.815984	0.024189
C	0.808148	0.807863	0.61087
C	-0.119908	-0.353825	1.075848
C	0.196729	-1.080146	-0.250969
C	1.362898	-0.129126	-0.515411
O	2.630033	-0.685714	-0.237771
H	-2.315809	-2.00439	0.375498
H	-3.152265	-0.442765	0.519545
H	-2.785398	-1.108924	-1.080415
H	0.278177	2.472864	-0.726329
H	-0.639326	2.437059	0.804725
H	1.558918	1.210789	1.290021
H	-0.312168	-0.719041	2.07678
H	0.192245	-2.142507	-0.474937
H	1.446387	0.309472	-1.515046
H	2.561856	-1.165675	0.596059
