19
../xyz/dsC7O2H10nsd_0324.xyz
C          2.10920       -0.59845       -0.00776
C          0.70804       -0.97477       -0.48635
O         -0.23827       -1.72917        0.19913
C         -1.54372       -1.10987        0.13904
C         -1.66210        0.33722       -0.43071
C         -0.67370        1.42561        0.07440
C          0.19768        0.88891        1.22345
C          0.98567        0.38590        0.02663
O          0.52862        1.48621       -0.77928
H          2.46419       -0.91643        0.96807
H          2.86964       -0.57468       -0.78096
H          0.65364       -1.04763       -1.57399
H         -2.19451       -1.75179       -0.46968
H         -1.93810       -1.13330        1.16196
H         -1.59255        0.32355       -1.52322
H         -2.68654        0.64869       -0.19227
H         -1.13623        2.41254        0.14611
H          0.72867        1.68725        1.74612
H         -0.21740        0.16822        1.92682
