19

C	3.055644	0.214246	0.35388
C	1.875664	0.10044	-0.617098
C	0.698244	-0.687433	-0.048817
C	-0.125473	0.055123	1.007162
C	-1.578848	-0.483978	0.80829
O	-1.536243	-1.467343	-0.22002
C	-0.590271	-0.61353	-0.915107
C	-1.060267	0.637833	-0.026694
O	-1.398762	1.941024	-0.258232
H	2.770822	0.747097	1.26704
H	3.421893	-0.77556	0.648076
H	3.890222	0.757034	-0.100458
H	1.536303	1.104149	-0.904177
H	2.211502	-0.390396	-1.540494
H	0.994569	-1.714415	0.197779
H	0.184107	0.492121	1.948193
H	-2.315824	-0.561587	1.596532
H	-0.586162	-0.747933	-1.995933
H	-2.275537	1.963837	-0.660236
