19
../xyz/dsC7O2H10nsd_2312.xyz
O          0.91370       -1.08234       -1.50918
C          0.84289       -0.43573       -0.28589
C          1.75074        0.81099       -0.22546
C          0.53987        1.71504        0.14471
C         -0.40394        0.49707        0.22772
C         -0.35671       -0.29870        1.55535
C          0.73240       -1.26532        1.00603
C         -1.67628        0.49308       -0.53413
O         -2.59524       -0.27002       -0.33640
H          0.33722       -1.85470       -1.48710
H          2.55216        0.75187        0.51580
H          2.19017        1.03345       -1.19941
H          0.62839        2.29765        1.06519
H          0.26575        2.39572       -0.66742
H         -0.05306        0.29880        2.41820
H         -1.30834       -0.78510        1.77298
H          1.65516       -1.37722        1.58302
H          0.32935       -2.26447        0.80804
H         -1.71830        1.22429       -1.37466
