19

O	-3.574833	-0.023157	0.273875
C	-2.374838	0.26851	-0.426482
C	-1.246925	-0.51291	0.237654
C	0.100567	-0.328045	-0.452114
C	0.788642	1.018431	-0.190703
C	2.292722	0.689084	-0.206232
O	2.441406	-0.692349	-0.532286
C	1.299279	-0.925692	0.339098
C	1.510806	0.470768	1.040235
H	-4.291313	0.467754	-0.13863
H	-2.451115	-0.021481	-1.487442
H	-2.151062	1.347061	-0.399521
H	-1.181788	-0.20682	1.288813
H	-1.520636	-1.575553	0.231426
H	0.056967	-0.662263	-1.496324
H	0.414732	2.02157	-0.353603
H	3.080148	1.382759	-0.469073
H	1.278957	-1.92006	0.78175
H	1.611007	0.810202	2.061159
