19

O	-1.548575	1.472922	-0.593752
C	-1.124187	0.319902	0.045059
C	-2.004872	-0.877197	0.24657
C	-0.754946	-1.006509	-0.60134
C	0.466152	-1.131886	0.317293
O	1.713812	-0.975382	-0.322281
C	1.897031	0.408947	-0.609587
C	1.261001	1.158176	0.571641
C	0.094466	0.251841	0.980501
H	-2.205507	1.90576	-0.037153
H	-2.077076	-1.3733	1.213243
H	-2.927847	-0.85879	-0.324704
H	-0.794734	-1.313558	-1.639274
H	0.517838	-2.028925	0.94092
H	2.970308	0.584589	-0.717936
H	1.403934	0.680346	-1.553962
H	1.972784	1.242621	1.397852
H	0.927698	2.161677	0.294952
H	-0.11717	0.279614	2.053492
