19

C	1.031431	1.91487	0.59708
C	0.942218	0.732939	-0.36568
O	2.143072	-0.054372	-0.28525
C	1.842831	-1.406862	0.016509
C	0.353003	-1.460139	0.158337
C	-0.171119	-0.252154	-0.067788
C	-1.600391	0.129009	-0.098331
C	-2.63586	-0.93288	0.230878
O	-1.929211	1.263429	-0.390913
H	1.094571	1.564608	1.632156
H	1.927662	2.50102	0.376046
H	0.151131	2.551642	0.486955
H	0.842005	1.119053	-1.391345
H	2.196795	-2.072533	-0.78873
H	2.3621	-1.720315	0.936783
H	-0.185753	-2.369359	0.394447
H	-2.472076	-1.336802	1.235462
H	-3.629945	-0.488636	0.17374
H	-2.570053	-1.769836	-0.472235
