19
../xyz/dsC7O2H10nsd_1793.xyz
C         -2.64373       -0.68581        0.00601
C         -1.24164       -0.15358        0.07776
C         -0.81570        1.07954        0.92189
C          0.21987        1.12643       -0.22072
O         -0.79796        0.58432       -1.11735
C          1.06712       -0.11249        0.05215
C          2.42245       -0.12900        0.60039
O          2.17165       -0.41004       -0.78514
C         -0.05783       -1.13832        0.27519
H         -2.91292       -1.17971        0.94537
H         -3.35640        0.12227       -0.17983
H         -2.73378       -1.41877       -0.80227
H         -1.54154        1.89046        0.84816
H         -0.47458        0.93390        1.95076
H          0.71262        2.02925       -0.57874
H          2.94672        0.80592        0.79860
H          2.75393       -0.97788        1.19737
H         -0.04647       -1.91072       -0.49731
H         -0.04023       -1.60955        1.26180
