19
../xyz/dsC7O2H10nsd_5926.xyz
C          3.50699       -0.65231       -0.03217
O          2.25234       -0.18243       -0.46699
C          1.18847       -0.64704        0.32254
C         -0.11541       -0.02328       -0.20114
C         -1.33451       -0.66047        0.51258
C         -2.66445       -0.19760       -0.04683
O         -3.57003       -0.93972       -0.32892
C         -0.10396        1.43080       -0.04977
C         -0.11364        2.62207        0.10975
H          3.56461       -1.75193       -0.06213
H          4.25993       -0.24058       -0.70787
H          3.73128       -0.32401        0.99469
H          1.11148       -1.74640        0.26794
H          1.33198       -0.37509        1.38175
H         -0.16936       -0.26510       -1.27097
H         -1.29785       -1.75128        0.44500
H         -1.30564       -0.38068        1.57493
H         -2.75591        0.90209       -0.17741
H         -0.10989        3.67709        0.23161
