19
../xyz/dsC7O2H10nsd_4829.xyz
C          1.11974        1.72578       -0.02652
C          0.53798        0.32648        0.16558
C          1.61772       -0.68810        0.54255
O          2.58055       -0.88690       -0.48552
C         -0.78748        0.22389        0.97034
C         -1.64633        0.68776       -0.25068
O         -2.58212       -0.42525       -0.17499
C         -1.28441       -1.00679        0.14444
C         -0.49331       -0.14808       -0.89359
H          1.62098        2.07388        0.88482
H          1.85454        1.73911       -0.83970
H          0.34894        2.45908       -0.28014
H          2.10141       -0.38319        1.48507
H          1.17085       -1.67234        0.71582
H          3.14278       -0.10783       -0.52369
H         -0.98754        0.42885        2.02306
H         -2.03277        1.67335       -0.50600
H         -1.23661       -2.07207        0.36400
H         -0.35348       -0.36726       -1.95182
