19
../xyz/dsC7O2H10nsd_1440.xyz
C         -0.80456        1.72647       -0.54267
C         -0.88263        0.27939       -0.06014
C         -2.18773        0.03531        0.69495
C         -0.42498       -0.83861       -1.01081
O         -0.25166       -1.77518        0.16925
C          0.38510       -0.45522        0.54279
C          1.57614        0.34016        1.10598
O          1.84531        0.73555       -0.29859
C          1.10525       -0.47466       -0.74094
H         -1.72144        1.97125       -1.09091
H         -0.75160        2.41172        0.31103
H          0.05106        1.92654       -1.18471
H         -3.04590        0.21651        0.03795
H         -2.24805       -0.98540        1.07135
H         -2.27492        0.73063        1.53731
H         -0.91803       -1.29578       -1.87449
H          1.36027        1.20654        1.73713
H          2.40108       -0.25463        1.51189
H          1.79889       -1.28754       -0.95670
