19

C	-0.396608	2.196069	0.15421
C	0.411642	0.947245	0.013309
C	1.695462	0.805441	-0.308225
C	2.090018	-0.640978	-0.309614
O	0.89952	-1.344634	0.049308
C	-0.187214	-0.438069	0.238334
C	-0.823682	-0.63717	1.616118
C	-1.211313	-0.693452	-0.877459
O	-2.351584	-0.308189	-0.858715
H	-1.307335	2.147808	-0.452503
H	-0.72149	2.339685	1.191679
H	0.179123	3.0751	-0.145358
H	2.39095	1.60882	-0.519343
H	2.44594	-0.98511	-1.292734
H	2.886093	-0.864629	0.417371
H	-1.059202	-1.694699	1.763065
H	-0.134196	-0.320567	2.402906
H	-1.75112	-0.064418	1.687908
H	-0.78208	-1.253925	-1.737775
