19
../xyz/dsC7O2H10nsd_4003.xyz
C          3.04638       -0.10750       -0.50277
C          1.61365        0.36625       -0.37305
O          1.26489        0.61272        1.02965
C          0.31131       -0.44921        0.99993
C          0.53585       -0.70949       -0.48949
C         -0.76778       -0.15400        0.01650
C         -1.55846        1.11640       -0.26559
C         -2.77345        0.16225       -0.22123
O         -1.91931       -0.99447       -0.02577
H          3.28498       -0.31844       -1.55121
H          3.73151        0.66565       -0.14205
H          3.20727       -1.01687        0.08340
H          1.44816        1.27118       -0.97329
H          0.21431       -1.09975        1.86227
H          0.59529       -1.63192       -1.05277
H         -1.51151        1.87814        0.51339
H         -1.37021        1.57514       -1.23845
H         -3.45323        0.30588        0.62600
H         -3.35619        0.07685       -1.14414
