19

O	-2.526489	-0.612882	0.018311
C	-1.200622	-0.218975	0.0872
C	-0.16662	-0.809031	1.0474
C	0.929464	-0.475937	-0.02601
O	1.898381	-1.446685	-0.298693
C	1.580057	0.881453	0.255585
C	0.392973	1.877282	0.234897
C	-0.724768	1.110181	-0.477841
C	-0.215478	-0.192437	-1.05462
H	-3.032427	-0.082977	0.644272
H	-0.05544	-0.382086	2.051383
H	-0.304307	-1.892426	1.12841
H	1.452669	-2.286858	-0.44798
H	2.128765	0.87972	1.201825
H	2.293884	1.100078	-0.545397
H	0.097647	2.184613	1.24439
H	0.647075	2.790137	-0.311484
H	-1.483511	1.647076	-1.037511
H	-0.289527	-0.51596	-2.084524
