19
../xyz/dsC7O2H10nsd_0325.xyz
C         -2.10638       -0.62043        0.06407
C         -0.74549       -0.93004       -0.51716
O          0.22997       -1.68622        0.12921
C          1.53063       -1.05574        0.06841
O          1.56632        0.22954       -0.48426
C          0.83413        1.30294        0.13514
C         -0.43443        1.60430       -0.73671
C         -1.02739        0.42685        0.04782
C         -0.12929        0.79555        1.23130
H         -2.93650       -0.59386       -0.63490
H         -2.35852       -1.00557        1.04706
H         -0.72148       -0.99885       -1.60535
H          1.92472       -1.07812        1.09424
H          2.17536       -1.65372       -0.58507
H          1.53443        2.11387        0.35324
H         -0.86084        2.58159       -0.48729
H         -0.32289        1.49952       -1.81783
H         -0.53416        1.63521        1.80432
H          0.19883        0.01277        1.91473
