19

O	2.052947	-1.417321	0.395525
C	1.447478	-0.454399	-0.454565
C	1.737735	1.041224	-0.064977
C	0.405787	1.635674	0.464118
C	-0.635663	0.891166	-0.391836
O	-1.945742	0.744036	0.134905
C	-2.283105	-0.648353	0.158806
C	-0.983485	-1.380669	-0.086984
C	-0.054924	-0.495802	-0.429939
H	1.578952	-1.396994	1.234456
H	1.860315	-0.669229	-1.445786
H	2.556012	1.089836	0.657124
H	2.061082	1.589755	-0.956379
H	0.24153	1.368324	1.513971
H	0.360001	2.724221	0.380411
H	-0.689512	1.357184	-1.391533
H	-2.721921	-0.895338	1.135723
H	-3.048063	-0.869121	-0.604567
H	-0.858966	-2.445396	0.065404
