19

C	-1.38491	-0.424639	1.393496
C	-0.984835	0.103817	0.001204
C	-2.172827	0.001347	-0.967216
C	-0.479199	1.532305	0.118042
C	0.854278	1.655448	0.047999
C	1.440063	0.315106	-0.130991
O	2.577733	-0.067686	0.038882
C	0.289795	-0.619166	-0.523599
O	0.491828	-1.924323	-0.056323
H	-1.699422	-1.46839	1.320739
H	-0.546861	-0.375035	2.093442
H	-2.211646	0.163862	1.804648
H	-2.483904	-1.041707	-1.08169
H	-3.032916	0.569315	-0.595829
H	-1.914852	0.389042	-1.958116
H	-1.171816	2.354517	0.275981
H	1.438039	2.55888	0.168174
H	0.247689	-0.60644	-1.628086
H	1.445012	-1.993284	0.106653
