19

C	1.832431	-1.689291	0.258055
C	1.052964	-0.436481	0.044553
O	1.499856	0.501456	-0.939423
C	0.208768	1.158939	-0.7899
C	0.294324	1.80595	0.614544
C	0.305759	0.366975	1.130006
C	-0.402463	-0.142312	-0.140157
C	-1.637205	-0.95021	-0.346744
O	-2.826823	-0.253943	0.008467
H	1.338979	-2.325988	0.998295
H	1.9314	-2.253671	-0.674284
H	2.837147	-1.456811	0.62673
H	-0.117777	1.690813	-1.680803
H	1.162466	2.445975	0.799732
H	-0.632043	2.322286	0.87924
H	0.201531	0.002674	2.145498
H	-1.757096	-1.209153	-1.404516
H	-1.545702	-1.898312	0.208963
H	-2.730637	0.020657	0.92665
