19

C	3.376744	0.066833	-0.057646
O	2.242414	-0.748641	-0.286582
C	1.094372	-0.255021	0.319397
C	0.267827	0.791963	-0.379832
O	-0.342432	1.760911	0.419153
C	-0.217579	-0.644635	-0.298921
C	-1.417323	-0.968216	0.58198
C	-2.661162	-0.430561	0.031496
C	-3.658001	0.048902	-0.441274
H	3.617534	0.131072	1.014007
H	4.215521	-0.39596	-0.582477
H	3.227325	1.086374	-0.439786
H	1.133469	-0.178261	1.408511
H	0.630693	1.131729	-1.349717
H	-1.262902	1.833734	0.137583
H	-0.14849	-1.210623	-1.222422
H	-1.5049	-2.053579	0.711371
H	-1.264799	-0.547234	1.581573
H	-4.55257	0.448999	-0.850415
