19
../xyz/dsC7O2H10nsd_2923.xyz
C          1.22185        2.00465       -0.00320
C          0.78029        0.55775        0.00142
C          1.88170       -0.50451        0.00075
O          1.12318       -1.71713        0.00636
C         -0.20398       -1.23475        0.00754
C         -0.34322       -0.00973       -0.94954
C         -1.40746        0.56661       -0.00690
O         -2.66054       -0.07517       -0.08933
C         -0.33940       -0.00498        0.95744
H          1.83348        2.22587        0.87902
H          1.83222        2.22073       -0.88750
H          0.38038        2.70229       -0.00501
H          2.51830       -0.45622       -0.89298
H          2.52363       -0.45131        0.89029
H         -0.92324       -2.04740        0.00899
H         -0.34174       -0.01204       -2.04037
H         -1.52086        1.65634       -0.01090
H         -3.21285        0.25029        0.62805
H         -0.32906       -0.00041        2.04923
