19
../xyz/dsC7O2H10nsd_3207.xyz
C          2.75945        0.08177        0.48734
C          1.32935       -0.41444        0.53857
C          0.72791       -0.97627       -0.72869
C         -0.65976       -1.56307       -0.42468
C         -1.09284       -0.15354        0.03411
C         -2.36780        0.52421       -0.17344
O         -1.92057        0.16001        1.14469
C          0.29017        0.39931       -0.19997
O          0.54349        1.65436       -0.72279
H          2.95044        0.82625        1.26899
H          3.46213       -0.74335        0.64160
H          2.98530        0.54549       -0.47671
H          1.04531       -0.87742        1.48362
H          1.33211       -1.19693       -1.59912
H         -1.20502       -1.91124       -1.30523
H         -0.68602       -2.33727        0.34816
H         -2.37823        1.59256       -0.38342
H         -3.22356       -0.03614       -0.54883
H          0.81528        2.23530       -0.00366
