19
../xyz/dsC7O2H10nsd_4169.xyz
O          1.67151        1.61595       -0.24919
C          1.50726        0.21483       -0.28424
C          1.21924       -0.48025        1.09275
C         -0.12864       -1.12056        0.71232
O          0.18445       -1.67576       -0.61171
C          0.22995       -0.27209       -1.01987
C         -0.88122        0.00262       -0.00651
C         -2.34354        0.12187       -0.24074
C         -1.58618        1.23756        0.46683
H          0.90702        1.98810        0.20326
H          2.40428       -0.18028       -0.76451
H          1.96315       -1.23440        1.35668
H          1.14982        0.24848        1.90610
H         -0.61021       -1.82210        1.39384
H          0.13744       -0.09783       -2.09163
H         -2.69329        0.31002       -1.25054
H         -3.01208       -0.49059        0.35551
H         -1.44603        2.16696       -0.07727
H         -1.74905        1.36612        1.53258
