19

O	1.888373	1.735557	0.018253
C	1.656351	0.570863	0.065645
O	2.477532	-0.465642	-0.30683
C	1.454935	-1.461099	0.022153
C	0.49116	-0.342925	0.470746
C	-0.810236	-0.140527	-0.283985
C	-1.671203	1.112594	0.043169
C	-2.93932	0.229986	-0.110602
C	-2.041627	-1.02418	0.07167
H	1.157428	-2.015356	-0.871172
H	1.813492	-2.142892	0.795641
H	0.317638	-0.321403	1.55147
H	-0.617434	-0.186711	-1.362432
H	-1.525172	1.433249	1.079399
H	-1.560191	1.983513	-0.605077
H	-3.750645	0.378553	0.604992
H	-3.354033	0.287258	-1.120885
H	-2.008593	-1.346096	1.117975
H	-2.240089	-1.897703	-0.554071
