19
../xyz/dsC7O2H10nsd_4158.xyz
O         -0.32339        2.08476       -0.41302
C         -0.88089        1.02011        0.33778
C         -1.58238        0.02723       -0.63382
C         -0.80908       -1.29213       -0.41923
C         -0.54670       -1.23452        1.10712
C          0.17741        0.12876        1.06089
C          1.25576       -0.14424        0.01137
O          2.36961        0.30813       -0.02342
C          0.61783       -1.12831       -0.98470
H          0.28802        2.57142        0.15045
H         -1.58928        1.40694        1.08423
H         -2.63896       -0.09140       -0.37923
H         -1.52117        0.40398       -1.65763
H         -1.32999       -2.18050       -0.77895
H         -1.46651       -1.20968        1.69910
H          0.08637       -2.04660        1.47776
H          0.56789        0.54708        1.98887
H          0.66480       -0.73492       -2.00388
H          1.17738       -2.07085       -0.96566
