19

C	2.201855	-0.154621	0.550731
C	1.722203	1.132322	-0.165252
C	0.270996	0.798749	-0.328992
C	-0.826542	1.48143	-0.022503
C	-2.144115	0.752031	0.080978
C	-1.854772	-0.685346	0.525152
O	-0.965712	-1.332723	-0.379738
C	0.241224	-0.679178	-0.629155
O	1.319351	-1.210164	0.148385
H	3.22841	-0.4287	0.28542
H	2.149346	-0.033913	1.641111
H	1.904437	2.038184	0.416674
H	2.226723	1.238564	-1.133719
H	-0.776024	2.532619	0.249455
H	-2.791492	1.24164	0.817041
H	-2.692575	0.747361	-0.870148
H	-1.436243	-0.679502	1.54178
H	-2.759216	-1.298932	0.527545
H	0.452426	-0.88656	-1.690086
