19

C	2.301485	0.855823	0.552025
C	0.820982	0.48449	0.43822
C	0.048383	1.520112	-0.40847
C	-1.446673	1.370541	-0.438079
C	-2.166108	0.346488	0.016795
C	-1.631936	-0.927626	0.621684
O	-0.529829	-1.519655	-0.08202
C	0.674904	-0.906343	-0.175265
O	1.562904	-1.471433	-0.755399
H	2.77167	0.871045	-0.434237
H	2.410263	1.843762	1.010197
H	2.843821	0.128877	1.161099
H	0.37766	0.476584	1.441248
H	0.284098	2.51863	-0.016317
H	0.443186	1.516147	-1.435023
H	-1.979435	2.209295	-0.881955
H	-3.249458	0.398995	-0.052264
H	-1.36819	-0.796643	1.680074
H	-2.404429	-1.698897	0.585068
