19
../xyz/dsC7O2H10nsd_1472.xyz
C          1.96334        1.11590       -0.27974
C          1.05559       -0.07577       -0.04451
O          1.79661       -1.26803        0.18054
C         -0.05212        0.00176        1.04434
O         -0.74368        1.20558        0.69298
C         -1.25530        0.75155       -0.57897
C         -2.21346       -0.37875       -0.14875
C         -0.89685       -1.07132        0.23441
C         -0.16850       -0.33839       -0.95377
H          2.50007        1.01203       -1.23118
H          1.38838        2.04333       -0.30863
H          2.70735        1.18590        0.52014
H          2.29059       -1.46575       -0.62196
H          0.16200       -0.04887        2.11072
H         -1.53642        1.59392       -1.20877
H         -2.95197       -0.13249        0.61830
H         -2.68373       -0.87961       -0.99950
H         -0.78117       -2.12413        0.46998
H         -0.11481       -0.71460       -1.97531
