19

C	0.282622	2.403382	-0.150979
O	-0.315015	1.309533	0.51206
C	0.018127	0.042243	-0.016918
C	-1.035683	-0.955791	0.493356
C	-2.368624	-0.697242	-0.0339
C	-3.462024	-0.48976	-0.486739
C	1.406667	-0.385899	0.427518
C	2.573575	-0.32623	-0.462298
O	1.917943	-1.566076	-0.194202
H	0.041744	2.403382	-1.22472
H	-0.125736	3.310076	0.30132
H	1.376046	2.416904	-0.039603
H	-0.01238	0.059029	-1.117901
H	-0.708775	-1.96459	0.216658
H	-1.049412	-0.908996	1.589551
H	-4.432021	-0.30614	-0.877001
H	1.571281	-0.32951	1.505263
H	2.455915	0.052159	-1.47703
H	3.57195	-0.224183	-0.039634
