19
../xyz/dsC7O2H10nsd_1810.xyz
C         -1.66488        1.80646        0.03539
C         -1.18853        0.38766        0.03636
C         -1.31092       -0.70759        1.13359
C         -0.81557       -1.36034       -0.17477
O         -1.82532       -0.56867       -0.91141
C          0.19403       -0.20174       -0.40387
C          1.44399       -0.03518        0.40862
C          2.53728        0.83313       -0.05408
O          2.63628       -0.58385       -0.17147
H         -1.10683        2.39578        0.76982
H         -1.52361        2.25776       -0.95134
H         -2.72809        1.85307        0.28958
H         -0.64607       -0.67064        1.99930
H         -2.33676       -0.95974        1.40539
H         -0.71905       -2.41449       -0.43196
H          0.39503       -0.03725       -1.46548
H          1.37000       -0.20673        1.48196
H          2.42918        1.37418       -0.99363
H          3.20608        1.29379        0.67195
