19

C	-2.230418	-1.836042	0.076916
O	-1.083733	-1.169512	-0.414923
C	-0.84177	0.077269	0.202951
C	0.593555	0.5054	-0.126935
C	1.632509	-0.504844	0.400522
C	2.998656	-0.119751	0.072877
C	4.115485	0.220843	-0.212409
C	-1.807138	1.137384	-0.325622
O	-2.106068	2.140223	0.266344
H	-3.149787	-1.252054	-0.077989
H	-2.315596	-2.776189	-0.471993
H	-2.13865	-2.053678	1.151389
H	-0.967021	0.011084	1.295865
H	0.70018	0.601362	-1.213019
H	0.769865	1.493019	0.308866
H	1.527535	-0.598542	1.48956
H	1.40887	-1.491638	-0.018064
H	5.107346	0.509528	-0.457557
H	-2.18961	0.90987	-1.348231
