19
dsC7O2H10nsd_3809.xyz
C         -2.83352        0.03402       -0.29672
C         -1.54979       -0.50064        0.32810
C         -0.72498        0.57788        1.09496
C          0.37458        0.58795       -0.00256
O          0.63286        1.83596       -0.53756
C         -0.38479       -0.68462       -0.67007
C          0.75922       -1.60748       -0.15944
C          1.56035       -0.34049        0.17946
O          2.73622       -0.08780        0.18508
H         -3.56270        0.30412        0.47483
H         -2.63474        0.92924       -0.89669
H         -3.29476       -0.71286       -0.95210
H         -1.76741       -1.40154        0.91156
H         -1.21568        1.55302        1.13865
H         -0.38344        0.31596        2.09936
H          1.54922        1.83602       -0.84490
H         -0.60171       -0.74518       -1.73648
H          0.49719       -2.23808        0.69499
H          1.25496       -2.22566       -0.91175
