19
dsC7O2H10nsd_1422.xyz
C         -0.81382       -1.80645       -0.63998
C         -0.85123       -0.44773        0.04869
C         -2.28921       -0.05075        0.38686
C          0.11336        0.07934        1.11580
C          1.63453       -0.13218        0.85138
O          1.85659       -0.87838       -0.35676
C          1.54393        0.51424       -0.45221
C          0.00522        0.76895       -0.23942
O         -0.49483        2.03878       -0.47987
H         -1.45706       -1.78473       -1.52856
H          0.18463       -2.10742       -0.93612
H         -1.22481       -2.56855        0.03317
H         -2.74280       -0.80934        1.03351
H         -2.34760        0.91688        0.88827
H         -2.89413        0.00808       -0.52547
H         -0.25458        0.43139        2.07158
H          2.42249       -0.14350        1.59465
H          2.22215        1.16534       -0.99216
H         -0.85904        2.05617       -1.37261
