19
dsC7O2H10nsd_5289.xyz
C         -2.67730       -0.24401       -0.08117
C         -1.48297       -0.50176        0.84872
C         -0.15535       -0.25587        0.15979
C          0.32133       -1.23624       -0.94651
O          1.63967       -1.34393       -0.36963
C          1.29189       -0.47745        0.72509
C          1.67153        0.99772        0.45212
C          0.26731        1.19240       -0.15754
O         -0.31283        2.13039       -0.62494
H         -3.62185       -0.40935        0.44507
H         -2.66222        0.78373       -0.45261
H         -2.65826       -0.91505       -0.94700
H         -1.56014        0.14507        1.73154
H         -1.50671       -1.53525        1.21779
H         -0.20701       -2.19822       -0.91783
H          0.33787       -0.86624       -1.97786
H          1.52274       -0.90628        1.70226
H          1.79451        1.60123        1.35879
H          2.52778        1.15994       -0.20655
