19
dsC7O2H10nsd_4509.xyz
O          2.36414       -0.29581        0.28175
C          1.20395       -0.33189       -0.53898
C          0.64732        1.07640       -0.84949
O         -0.20830        1.60602        0.16339
C         -1.18128        0.66610        0.66523
C         -0.42918       -0.48488        1.34733
C          0.08555       -1.21361        0.08578
C         -1.15786       -1.14367       -0.79556
C         -1.88885       -0.07735       -0.46343
H          2.18119        0.28604        1.02677
H          1.54266       -0.77444       -1.48292
H          1.48047        1.77982       -0.93632
H          0.12633        1.04970       -1.81496
H         -1.83055        1.25268        1.31724
H          0.35304       -0.12948        2.02341
H         -1.11180       -1.12607        1.91182
H          0.46527       -2.22170        0.26577
H         -1.35223       -1.82801       -1.61352
H         -2.77906        0.28311       -0.96369
