19
dsC7O2H10nsd_1627.xyz
O         -1.15056       -1.53496       -0.56858
C         -1.02435       -0.22564       -0.08268
C         -2.07677        0.72852       -0.55046
C         -2.07976        0.26522        0.89013
C          0.38368        0.18484        0.10303
C          1.00245        1.54205        0.14739
C          1.54680        0.50138       -0.81735
C          2.30182       -0.55754       -0.03067
O          1.17821       -0.74334        0.87787
H         -0.59070       -2.07775        0.00111
H         -1.80502        1.75472       -0.76912
H         -2.82239        0.30415       -1.21279
H         -1.78503        0.96972        1.65964
H         -2.83414       -0.45643        1.18048
H          0.44406        2.34103       -0.32958
H          1.57281        1.83731        1.02452
H          1.57103        0.64666       -1.88828
H          2.49410       -1.47544       -0.59656
H          3.21088       -0.25055        0.49982
