19
dsC7O2H10nsd_2598.xyz
C          0.81993       -2.30036       -0.03179
C          0.47430       -0.89144       -0.50043
C          1.31044        0.27813        0.06593
O          2.48792        0.47036        0.16496
C          0.05991        1.07112        0.50573
C         -0.20836        2.37557       -0.24666
C         -0.76117       -0.15867        0.06008
C         -1.99193       -0.70245        0.63067
O         -1.98255       -0.04965       -0.64897
H          0.79068       -2.37340        1.05993
H          0.12037       -3.03547       -0.44158
H          1.82815       -2.57013       -0.35920
H          0.46997       -0.84126       -1.59774
H          0.04856        1.24580        1.58798
H         -1.19809        2.76545        0.00642
H          0.54241        3.12581        0.01532
H         -0.17986        2.22368       -1.32966
H         -2.17949       -1.77500        0.60309
H         -2.50433       -0.16252        1.42635
