19
dsC7O2H10nsd_2924.xyz
C          0.40035        2.05332        0.00629
C         -0.23399        0.68871        0.00400
O         -1.65426        0.83127        0.00160
C         -2.12588       -0.51758       -0.00010
C         -0.81037       -1.27523        0.00267
C          0.15806       -0.49757        0.95686
C          1.30474       -0.89768       -0.00686
O          2.48217       -0.12871       -0.09176
C          0.16151       -0.49732       -0.95045
H          1.48572        1.97390        0.00010
H          0.07291        2.61489       -0.87440
H          0.07836        2.60990        0.89240
H         -2.73894       -0.71055        0.88977
H         -2.73467       -0.70941       -0.89319
H         -0.81837       -2.36536        0.00077
H          0.14582       -0.50856        2.04857
H          1.54166       -1.97000       -0.00729
H          3.06157       -0.38833        0.63126
H          0.15604       -0.50691       -2.04123
