19
dsC7O2H10nsd_4401.xyz
C         -2.58261        0.79332        0.55860
C         -1.50435       -0.07325       -0.05152
O         -0.72799       -0.61849        0.99200
C          0.31754       -1.43662        0.50620
C          1.23483       -0.64873       -0.45706
C          0.31774       -0.00594       -1.52278
O         -0.72761        0.72671       -0.91502
C          2.04559        0.34223        0.24130
C          2.72771        1.15108        0.81090
H         -3.20488        1.22291       -0.22947
H         -3.20654        0.19670        1.22764
H         -2.11830        1.60159        1.12833
H         -1.93611       -0.90830       -0.64035
H          0.87043       -1.79608        1.37624
H         -0.09515       -2.30583       -0.03380
H          1.89760       -1.36457       -0.96183
H          0.87064        0.69260       -2.15378
H         -0.09546       -0.80653       -2.15988
H          3.32389        1.86915        1.31718
