19
dsC7O2H10nsd_2012.xyz
C          2.70454        0.28538       -0.35199
C          1.25777        0.10236        0.05135
C          0.90493       -0.81170        1.19961
C          0.54129       -1.19172       -0.22060
C         -0.89403       -1.08568       -0.69665
C         -1.66915        0.06898       -0.07901
O         -2.84646        0.03460        0.14953
O         -0.96567        1.18696        0.24072
C          0.40212        1.33654       -0.16188
H          3.26356       -0.64653       -0.22756
H          2.79261        0.58865       -1.40211
H          3.19557        1.05196        0.25893
H          1.71679       -1.35406        1.67160
H          0.11132       -0.51839        1.87870
H          1.11122       -1.99841       -0.67248
H         -0.91198       -0.94318       -1.78655
H         -1.47204       -1.99035       -0.49174
H          0.43265        1.63052       -1.22127
H          0.77258        2.18238        0.42552
