19
dsC7O2H10nsd_6050.xyz
C          3.33537       -0.21325       -0.42867
C          2.09058        0.16579        0.35400
O          0.99911       -0.58843       -0.16923
C         -0.22712       -0.38357        0.48836
C         -1.22446       -1.49778        0.12394
C         -2.48651       -0.76187       -0.24557
C         -2.33415        0.56813       -0.28350
C         -0.94546        0.92993        0.06900
O         -0.43754        2.02829        0.03741
H          4.20363        0.33027       -0.04422
H          3.53245       -1.28634       -0.34843
H          3.21350        0.03494       -1.48689
H          2.21608       -0.07204        1.42426
H          1.88268        1.23805        0.27457
H         -0.07696       -0.34208        1.58072
H         -0.83506       -2.06699       -0.72816
H         -1.38840       -2.21495        0.93523
H         -3.40931       -1.28865       -0.46601
H         -3.08072        1.30462       -0.55191
