19
dsC7O2H10nsd_2219.xyz
C         -2.32196       -0.41629       -0.00001
C         -0.81406       -0.31703       -0.00001
C          0.04979       -1.57345       -0.00001
C          1.33939       -0.74995        0.00001
O          1.21449        0.05831        1.16327
C         -0.10388        0.62405        1.05211
C         -0.08219        1.75662        0.00001
C         -0.10386        0.62407       -1.05212
O          1.21451        0.05832       -1.16325
H         -2.67934       -0.95481       -0.88447
H         -2.67940       -0.95380        0.88505
H         -2.79616        0.57091       -0.00059
H         -0.06146       -2.18447        0.89868
H         -0.06146       -2.18444       -0.89872
H          2.31068       -1.24073        0.00001
H         -0.51287        0.78536        2.05123
H         -1.00670        2.34111        0.00001
H          0.78815        2.41437        0.00001
H         -0.51283        0.78538       -2.05124
