19
dsC7O2H10nsd_4018.xyz
O         -2.84105        0.05988       -0.36621
C         -1.44459       -0.06868       -0.42447
C         -0.79275       -1.44134       -0.09669
C          0.28547       -0.69214        0.74499
C         -0.57052        0.60290        0.68430
C          0.35130        1.75948        0.25793
C          1.48102        1.08663       -0.54362
C          1.56846       -0.35569       -0.01867
O          2.50004       -1.10221       -0.17712
H         -3.13600       -0.25481        0.49515
H         -1.16789        0.28590       -1.42277
H         -1.44215       -2.04518        0.54514
H         -0.45043       -2.06300       -0.92758
H          0.53819       -1.13983        1.70782
H         -1.15932        0.82426        1.57845
H         -0.18477        2.52274       -0.31422
H          0.76538        2.25181        1.14498
H          1.24216        1.02993       -1.61378
H          2.45263        1.57988       -0.46908
