19
dsC7O2H10nsd_0265.xyz
C         -2.20589       -0.17719       -0.28652
C         -1.39545        1.16290       -0.42545
C         -0.05844        0.59993        0.06296
C          1.30714        1.22208        0.18583
O          2.22888        0.17642       -0.13866
C          1.54621       -1.08727       -0.22772
C          0.11729       -0.75697       -0.65869
C         -1.06429       -1.05665        0.28766
O         -0.47307       -0.15074        1.26519
H         -3.03362       -0.09778        0.42074
H         -2.59476       -0.54381       -1.24064
H         -1.35047        1.53903       -1.45076
H         -1.77529        1.95292        0.22545
H          1.45059        2.04963       -0.52012
H          1.48012        1.59327        1.20449
H          2.08845       -1.69018       -0.96078
H          1.56577       -1.60002        0.74154
H         -0.04896       -0.80376       -1.73790
H         -1.30765       -2.04568        0.67734
