19
dsC7O2H10nsd_5286.xyz
O         -2.64403       -0.47431       -0.08397
C         -1.60799       -0.14734        0.82289
C         -0.27766       -0.07784        0.09423
C          0.27028       -1.41130       -0.44634
C          1.75832       -1.28841       -0.21639
C          2.09917       -0.17086        0.42774
C          0.90989        0.69428        0.73711
C          0.57843        1.78677       -0.30813
O         -0.37873        0.92568       -0.96494
H         -2.55742        0.15714       -0.80971
H         -1.80218        0.81425        1.32594
H         -1.58965       -0.92889        1.59031
H         -0.15733       -2.27969        0.07114
H          0.01329       -1.51775       -1.50610
H          2.45839       -2.04846       -0.54685
H          3.11156        0.11383        0.69314
H          0.83002        0.99937        1.78420
H          0.10237        2.68580        0.10425
H          1.39032        2.08155       -0.98171
