19
dsC7O2H10nsd_4132.xyz
C         -1.85844       -1.23439        0.39304
C         -0.82659       -0.59167       -0.51753
O          0.34574       -1.41164       -0.63913
C          1.48526       -0.54403       -0.35021
C          1.02953        0.78948       -0.95571
C         -0.24636        0.78866       -0.06116
O         -1.20426        1.79770       -0.20900
C          0.38061        0.57484        1.30893
C          1.43910       -0.22460        1.13844
H         -1.45257       -1.40050        1.39410
H         -2.74324       -0.59396        0.46610
H         -2.16598       -2.20209       -0.01364
H         -1.26352       -0.43886       -1.51490
H          2.37959       -1.02717       -0.73888
H          1.69854        1.62462       -0.73942
H          0.81297        0.72888       -2.02540
H         -0.81843        2.62761        0.08929
H         -0.06028        0.92244        2.23533
H          2.06241       -0.67922        1.89759
