19
dsC7O2H10nsd_0263.xyz
C          0.60595       -0.30419        1.33864
C          1.17722       -1.06467        0.13226
O          2.10539       -0.09327       -0.42787
C          1.34130        1.14617       -0.40742
C          0.04484        0.57777        0.15274
O         -1.15675        1.25956        0.21845
C         -2.20778        0.30188       -0.04402
C         -1.55242       -1.09405       -0.30773
C         -0.10728       -0.72728       -0.66872
H         -0.17412       -0.82767        1.88889
H          1.32903        0.14555        2.02148
H          1.66521       -2.03601        0.17302
H          1.83901        1.88444        0.23052
H          1.23641        1.54765       -1.42105
H         -2.89125        0.28014        0.81158
H         -2.76851        0.65429       -0.91738
H         -1.62335       -1.72620        0.58020
H         -2.06121       -1.61946       -1.11870
H          0.04876       -0.64697       -1.74758
