19
dsC7O2H10nsd_2001.xyz
C         -1.94949        1.30955       -0.46718
C         -1.13733        0.16071        0.02824
O         -1.77897       -1.09029        0.31495
C         -0.66254       -1.09524       -0.58749
C          0.60143       -1.13720        0.28155
C          1.90530       -0.71588       -0.40523
C          1.77904        0.81285       -0.50615
O          1.03764        1.21324        0.64446
C          0.10252        0.20169        0.95557
H         -2.58046        1.70964        0.33449
H         -1.29320        2.11586       -0.80810
H         -2.59863        1.00237       -1.29163
H         -0.82886       -1.50563       -1.57855
H          0.69704       -2.02606        0.90695
H          2.75589       -0.98351        0.22854
H          2.05311       -1.18665       -1.38160
H          2.73821        1.33646       -0.48044
H          1.25546        1.10478       -1.42878
H         -0.10154        0.23029        2.02802
