19
dsC7O2H10nsd_0877.xyz
O          2.52127       -1.43909       -0.24558
C          1.53164       -1.14172        0.36943
C          0.23002       -0.67859       -0.24444
C         -0.93799       -1.64473        0.05109
C         -2.18396       -0.79853       -0.24815
C         -1.82159        0.62618        0.23461
C         -0.26421        0.67222        0.34976
C          0.32503        1.85778       -0.38217
O          1.03845        2.69224        0.10800
H          1.50204       -1.20793        1.48377
H          0.37962       -0.59354       -1.32706
H         -0.87903       -2.56202       -0.54037
H         -0.91533       -1.93184        1.11063
H         -2.37235       -0.79534       -1.32705
H         -3.08457       -1.18804        0.23365
H         -2.19176        1.38803       -0.45975
H         -2.26580        0.85075        1.20737
H          0.04410        0.75032        1.39737
H          0.03161        1.90878       -1.45876
