19
dsC7O2H10nsd_4758.xyz
C          3.57518        1.16981       -0.05222
C          2.06347        0.97514        0.07191
C          1.61573       -0.43765       -0.35432
O          2.26865       -1.45599        0.40262
C          0.15643       -0.57321       -0.29915
C         -1.04020       -0.68961       -0.21771
C         -2.48973       -0.77774       -0.12478
C         -3.12614        0.52807        0.35912
O         -4.17373        0.94807       -0.04878
H          4.10967        0.41766        0.53317
H          3.90004        1.07435       -1.09430
H          3.87269        2.16124        0.30115
H          1.73784        1.14048        1.10723
H          1.52591        1.70697       -0.54198
H          1.94958       -0.61030       -1.38567
H          1.88442       -1.44747        1.28653
H         -2.95405       -1.05320       -1.07734
H         -2.77379       -1.55414        0.60256
H         -2.54023        1.05887        1.14088
