19
dsC7O2H10nsd_5746.xyz
O          3.14385       -0.68516       -0.09558
C          2.33031        0.46953        0.01998
C          0.90251        0.24180       -0.46104
C         -0.04181        1.46305       -0.24134
C         -0.92284        0.62210        0.73432
C          0.01991       -0.61966        0.48878
C         -1.14145       -1.38326       -0.20467
C         -2.03676       -0.14456        0.01109
O         -3.17492        0.10983       -0.25590
H          2.77776       -1.36471        0.47950
H          2.31700        0.85057        1.05547
H          2.80957        1.23671       -0.59847
H          0.93902       -0.13676       -1.48737
H          0.45380        2.29864        0.26078
H         -0.55556        1.85362       -1.12247
H         -1.16498        1.05902        1.70373
H          0.51985       -1.14439        1.30524
H         -0.99269       -1.70702       -1.23916
H         -1.51432       -2.23707        0.37187
