19
dsC7O2H10nsd_5324.xyz
C          2.72244       -0.71023       -0.67515
C          1.86302       -0.81163        0.60218
C          0.43848       -0.40700        0.37165
C         -0.60439       -1.20789        0.10126
C         -1.84316       -0.43175       -0.10710
O         -2.95946       -0.86117       -0.28476
C         -1.44428        1.05179       -0.05265
C          0.00730        1.04876        0.46098
O          0.91216        1.85692       -0.28211
H          3.75383       -1.00499       -0.45977
H          2.33421       -1.37156       -1.45550
H          2.71994        0.31133       -1.05854
H          1.89085       -1.84005        0.97834
H          2.30013       -0.16968        1.37632
H         -0.58525       -2.28989        0.04603
H         -1.46403        1.45801       -1.06955
H         -2.14816        1.62475        0.55584
H          0.03980        1.34453        1.52325
H          0.70056        2.77928       -0.10844
