19
dsC7O2H10nsd_4834.xyz
C          2.32096       -1.24146        0.32433
C          1.27452       -0.71218       -0.66607
C          0.55375        0.52143       -0.14969
O          1.41996        1.63887       -0.06300
C         -0.51617        0.62151        0.93329
C         -1.70302       -0.38138        0.83068
O         -1.49553       -1.30665       -0.24684
C         -1.96900        0.01508       -0.54858
C         -0.80520        1.05041       -0.51773
H          3.10858       -0.50684        0.53065
H          1.85701       -1.51758        1.27720
H          2.81625       -2.13037       -0.07677
H          1.76709       -0.42159       -1.60222
H          0.55578       -1.49483       -0.89282
H          2.09403        1.43175        0.59308
H         -0.37317        1.27662        1.78298
H         -2.35842       -0.69399        1.63501
H         -2.88742        0.09709       -1.11726
H         -0.91012        2.06155       -0.88853
