19
dsC7O2H10nsd_6000.xyz
C         -3.52244       -0.04719        0.00001
O         -2.19314       -0.51168        0.00006
C         -1.25076        0.53424       -0.00005
C          0.13122       -0.02729       -0.00003
C          0.51548       -1.30999       -0.00003
C          2.01396       -1.48507        0.00000
C          2.56261       -0.04450        0.00002
C          1.32062        0.85796        0.00001
O          1.31019        2.06916        0.00002
H         -3.74216        0.56073       -0.89167
H         -4.17445       -0.92380        0.00012
H         -3.74216        0.56094        0.89155
H         -1.38236        1.18881       -0.87970
H         -1.38232        1.18899        0.87946
H         -0.16917       -2.14991       -0.00004
H          2.34098       -2.05995        0.87505
H          2.34101       -2.05994       -0.87505
H          3.17500        0.18263        0.87756
H          3.17504        0.18265       -0.87749
