19
dsC7O2H10nsd_5191.xyz
C          2.73005        0.06822        0.15118
O          1.65338       -0.24530       -0.71172
C          0.39090       -0.05389       -0.15726
C         -0.06738       -0.98606        1.02025
C         -1.37734       -1.21307        0.26305
C         -1.87685        0.11325       -0.27514
O         -1.44286        1.30985        0.34336
C         -0.03073        1.39701        0.13917
C         -0.79252       -0.58626       -1.00924
H          2.67773       -0.49848        1.09167
H          3.64699       -0.20661       -0.37459
H          2.77073        1.13977        0.39213
H          0.54231       -1.89302        1.03671
H         -0.12474       -0.55322        2.02467
H         -2.02885       -2.07457        0.35674
H         -2.88754        0.17176       -0.66018
H          0.20766        2.04903       -0.71543
H          0.41797        1.81290        1.04685
H         -0.76316       -0.89919       -2.04379
