19
dsC7O2H10nsd_2731.xyz
C         -2.60549       -0.33826       -0.61876
C         -1.20737       -0.20920       -0.11276
O         -0.94769       -0.48556        1.27823
C         -0.17307       -1.18685        0.27569
C          0.94335       -0.25436       -0.12784
C          2.20004       -0.57682       -0.87743
C          2.26769       -0.02466        0.52949
C         -0.11648        0.82144       -0.51007
O         -0.11535        2.03087        0.19565
H         -3.20207        0.53190       -0.32330
H         -2.61741       -0.39786       -1.71179
H         -3.08100       -1.23450       -0.21151
H         -0.20413       -2.27050        0.29807
H          2.45496       -1.62144       -1.02754
H          2.48197        0.07198       -1.70084
H          2.57312       -0.68990        1.33031
H          2.57504        1.00848        0.65657
H         -0.11325        1.06522       -1.57648
H         -0.21500        1.78639        1.12556
