19
dsC7O2H10nsd_5400.xyz
C         -2.60851       -1.22006        0.06336
C         -1.12404       -1.22490       -0.31274
C         -0.31801       -0.18774        0.47547
C         -0.50274        1.29342        0.07503
O         -1.45555        2.01317       -0.00685
C          1.00123        1.47987       -0.22288
C          1.17312       -0.00992        0.11227
C          2.34454       -0.74968        0.57337
O          1.84018       -0.90450       -0.76276
H         -3.16613       -1.94258       -0.54007
H         -2.74958       -1.48460        1.11732
H         -3.04701       -0.23050       -0.09273
H         -0.68312       -2.21289       -0.13619
H         -1.00613       -1.03167       -1.38522
H         -0.47786       -0.32334        1.55342
H          1.22917        1.74706       -1.25928
H          1.50369        2.18757        0.44361
H          3.30824       -0.24793        0.65131
H          2.21819       -1.61633        1.22147
