19
dsC7O2H10nsd_1044.xyz
C          3.90858       -0.34306       -0.31116
C          2.55911       -0.09912        0.17789
C          1.44595        0.11343        0.58383
C          0.09150        0.35084        1.06947
C         -0.95603        0.39279       -0.04941
O         -0.68293        1.52004       -0.83597
C         -1.18251       -0.97179       -0.74807
O         -2.39043       -1.18780        0.01104
C         -2.40657        0.18113        0.45936
H          4.26926       -1.33506       -0.01717
H          3.95060       -0.28604       -1.40456
H          4.61400        0.39620        0.08432
H         -0.19667       -0.43686        1.77621
H          0.04108        1.30253        1.61346
H         -1.29512        1.53056       -1.57944
H         -1.38285       -0.87752       -1.82643
H         -0.43540       -1.75531       -0.58693
H         -3.14291        0.78989       -0.08701
H         -2.59527        0.26844        1.53552
