19
dsC7O2H10nsd_3501.xyz
C          2.56360       -0.65618       -0.32092
C          1.17637       -0.14106       -0.01226
C          1.04397        1.36437        0.11801
C         -0.37201        1.86658        0.11129
C         -1.43172        1.12326       -0.19620
C         -1.37801       -0.33588       -0.55886
O         -2.34416       -1.08275        0.18112
C         -0.00541       -0.94594       -0.36599
O          0.47055       -0.89630        0.98927
H          3.27798       -0.31417        0.43625
H          2.57393       -1.74866       -0.33012
H          2.90786       -0.29326       -1.29517
H          1.54817        1.68067        1.04210
H          1.60887        1.84033       -0.69672
H         -0.50802        2.91389        0.37059
H         -2.43101        1.54992       -0.17859
H         -1.67287       -0.46629       -1.60888
H         -2.03871       -1.06901        1.09705
H          0.14191       -1.91195       -0.84995
