19
dsC7O2H10nsd_5249.xyz
O          2.76909        0.14159        0.24210
C          1.76474       -0.42797       -0.58719
C          0.38148        0.06255       -0.25329
C         -0.01215        1.54364       -0.13931
C         -1.27579        0.95239        0.51691
O         -1.91470        0.30090       -0.59513
C         -0.90523       -0.69215       -0.82328
C         -0.97479       -1.52783        0.47485
C         -0.40542       -0.24356        1.09044
H          2.57609       -0.11817        1.14887
H          2.02583       -0.13025       -1.60976
H          1.80139       -1.52931       -0.55604
H          0.64485        2.05419        0.56912
H         -0.15869        2.14343       -1.04145
H         -1.99335        1.52586        1.10094
H         -0.97889       -1.10760       -1.82745
H         -1.96329       -1.88525        0.77260
H         -0.24497       -2.34121        0.50270
H          0.01891       -0.15407        2.08999
