19
dsC7O2H10nsd_4242.xyz
O          2.56952       -0.14152        0.27743
C          1.35474       -0.18046       -0.47125
C          0.79491        1.26424       -0.46784
C         -0.49092        1.24478        0.36293
O         -1.66332        0.92658       -0.44324
C         -1.78842       -0.37780        0.15565
C         -0.96994       -1.44444       -0.60640
C          0.29692       -1.05738        0.22748
C         -0.58631       -0.11195        1.09702
H          2.93238       -1.03298        0.29914
H          1.55205       -0.54156       -1.49144
H          1.55096        1.91611       -0.02153
H          0.57739        1.63613       -1.47218
H         -0.66094        2.16103        0.93670
H         -2.81506       -0.60179        0.45431
H         -1.30415       -2.46390       -0.39258
H         -0.92213       -1.30422       -1.68999
H          0.76435       -1.90396        0.73582
H         -0.59039       -0.16723        2.18270
