19
dsC7O2H10nsd_1400.xyz
C         -0.73718        1.39279       -1.27082
C         -0.45526        0.59180       -0.00000
C         -0.73718        1.39278        1.27083
C         -1.10257       -0.80490        0.00001
O         -2.19811       -1.26725       -0.00001
O          0.09500       -1.48036        0.00001
C          0.83860       -0.23418        0.00000
C          2.10695       -0.10884       -0.76347
C          2.10696       -0.10883        0.76345
H         -0.12331        2.29963       -1.29721
H         -0.52299        0.80915       -2.17035
H         -1.78829        1.69442       -1.30182
H         -0.12331        2.29963        1.29722
H         -1.78829        1.69441        1.30184
H         -0.52297        0.80913        2.17035
H          2.47749       -0.99735       -1.26264
H          2.30860        0.82278       -1.28208
H          2.47750       -0.99734        1.26263
H          2.30861        0.82279        1.28205
