19
dsC7O2H10nsd_4208.xyz
O         -2.51546       -0.62715        0.17980
C         -1.12339       -0.49311        0.44182
C         -0.28424       -1.29079       -0.56713
C          1.20716       -1.00442       -0.51850
C          1.95957       -0.74183        0.76213
C          1.67773        0.39289       -0.20638
C          0.64118        1.39746        0.17101
O         -0.44607        1.60863       -0.75248
C         -0.72406        0.96802        0.50095
H         -2.68331       -0.21236       -0.67460
H         -0.99526       -0.91193        1.44764
H         -0.48175       -2.35779       -0.41783
H         -0.64530       -1.03759       -1.57174
H          1.77269       -1.52677       -1.28477
H          1.41997       -0.74306        1.70308
H          2.97798       -1.10620        0.83796
H          2.51725        0.78488       -0.77249
H          1.00656        2.32017        0.62253
H         -1.32025        1.56944        1.18831
