19
dsC7O2H10nsd_5137.xyz
C          2.95197       -0.81023        0.18920
C          1.95494       -0.03607       -0.68212
C          0.60669        0.15714       -0.02238
C          0.38940        1.31307        0.94486
C         -0.32014        1.28979       -0.37797
O         -1.66301        0.84651       -0.36163
C         -1.73234       -0.47822       -0.02452
O         -2.77314       -1.05244        0.09004
C         -0.31612       -1.03216        0.17132
H          3.12411       -0.29684        1.14085
H          2.58521       -1.81670        0.41639
H          3.91598       -0.91485       -0.31729
H          2.37461        0.94664       -0.93085
H          1.81577       -0.55967       -1.63739
H         -0.20876        1.15934        1.83782
H          1.20733        2.01648        1.06061
H         -0.13251        2.01588       -1.15916
H         -0.25530       -1.51225        1.15190
H         -0.14357       -1.81055       -0.58041
