19
dsC7O2H10nsd_4731.xyz
C          2.33099       -1.34419       -0.01386
C          0.94951       -1.09764       -0.62058
C          0.15776        0.04767        0.05935
O         -0.04131       -0.23785        1.44386
C          0.83983        1.33955       -0.10987
C          1.40516        2.39334       -0.23597
C         -1.22447        0.14631       -0.59266
C         -2.44449        0.38286        0.18034
O         -2.12419       -0.91992       -0.33110
H          2.83861       -2.16130       -0.53410
H          2.96452       -0.45434       -0.08626
H          2.25187       -1.62782        1.04047
H          1.04177       -0.86793       -1.68847
H          0.32750       -1.99369       -0.52922
H          0.76111        0.01155        1.91194
H          1.90009        3.32690       -0.34670
H         -1.18385        0.46787       -1.63385
H         -2.37047        0.48102        1.25894
H         -3.29279        0.87238       -0.29532
