19
dsC7O2H10nsd_5712.xyz
O          2.04712       -1.43142       -0.59110
C          2.21100       -0.19308        0.07810
C          1.17217        0.82950       -0.34586
C          0.49815        1.69066        0.70843
C         -0.25824        0.56508        0.04372
O         -0.51020       -0.62440        0.78466
C         -1.84947       -1.06471        0.52709
C         -2.35469       -0.15432       -0.55889
C         -1.43584        0.76932       -0.82479
H          1.18221       -1.75442       -0.31099
H          2.17142       -0.32510        1.16904
H          3.21544        0.16459       -0.17135
H          1.32763        1.26644       -1.32862
H          0.79713        1.52858        1.73903
H          0.22543        2.71289        0.46809
H         -1.82823       -2.12314        0.23061
H         -2.45226       -0.99528        1.44678
H         -3.32993       -0.25876       -1.01532
H         -1.50268        1.57603       -1.54263
