19
dsC7O2H10nsd_4518.xyz
O          2.58294       -0.44013       -0.04358
C          1.22785       -0.12223       -0.34893
C          0.98822        1.30048        0.16341
C         -0.47202        1.75739       -0.00839
C         -1.45948        0.61107        0.19608
O         -1.54351       -0.24143       -0.99689
C         -1.10624       -1.36817       -0.23450
C         -0.98118       -0.57939        1.03804
C          0.26002       -1.10146        0.32697
H          2.79468       -1.27462       -0.47330
H          1.06661       -0.14817       -1.43669
H          1.25344        1.29946        1.22732
H          1.67483        1.98959       -0.33618
H         -0.69223        2.56776        0.69539
H         -0.64497        2.15736       -1.01428
H         -2.46333        0.96463        0.45036
H         -1.52957       -2.33767       -0.46923
H         -1.25010       -0.80770        2.05973
H          0.73215       -1.94429        0.82458
