19
dsC7O2H10nsd_0810.xyz
O         -2.56199       -0.72628        0.51049
C         -1.92030        0.19807        0.07907
C         -0.44509        0.13210       -0.24337
C          0.03934       -1.19269       -0.83081
C          1.53187       -1.25459       -0.45636
C          1.58597       -0.62886        0.95238
C          0.54265        0.49562        0.92477
C          0.86689        1.72693        0.05536
O         -0.02116        1.29119       -0.99750
H         -2.36809        1.20156       -0.09922
H         -0.52652       -1.99781       -0.34957
H         -0.14482       -1.24130       -1.90742
H          1.93554       -2.26989       -0.48398
H          2.11497       -0.65329       -1.16208
H          1.29685       -1.37125        1.70472
H          2.58187       -0.26276        1.22277
H          0.10874        0.71606        1.90062
H          0.55389        2.69077        0.47472
H          1.90479        1.80911       -0.29081
