19
dsC7O2H10nsd_0885.xyz
O         -2.91411       -0.00086       -0.62684
C         -1.71075        0.02769       -0.59333
C         -0.90121        0.33704        0.66928
C         -0.12403       -0.89911        1.18835
C          0.72719       -1.62438        0.13174
O          1.26134       -0.78369       -0.87325
C          2.05377        0.29480       -0.41651
C          1.26190        1.50848        0.00317
C          0.00087        1.53116        0.43603
H         -1.09337       -0.16028       -1.49543
H         -1.64236        0.60953        1.42725
H          0.50915       -0.55526        2.01322
H         -0.82795       -1.62306        1.61469
H          1.53344       -2.18263        0.63441
H          0.11902       -2.35184       -0.41464
H          2.72760       -0.03201        0.39528
H          2.69953        0.57048       -1.25859
H          1.79983        2.45097       -0.08147
H         -0.44928        2.49652        0.65362
