19
dsC7O2H10nsd_0336.xyz
C         -0.15167        1.76089        0.81186
C         -0.66821        1.20475       -0.49996
C         -1.86421        0.26596       -0.55429
O         -1.72625       -0.86493        0.29485
C         -0.54132       -1.60601        0.02579
C          0.64740       -0.80479        0.55048
O          1.89073       -0.96718       -0.17533
C          1.97057        0.45435       -0.45373
C          0.57870        0.65455        0.12728
H          0.27644        2.75814        0.79420
H         -0.68471        1.51208        1.72530
H         -0.55202        1.84367       -1.37153
H         -2.78453        0.76538       -0.23373
H         -2.00596       -0.07066       -1.59524
H         -0.65815       -2.57146        0.52473
H         -0.41438       -1.77853       -1.05425
H          0.79356       -0.96979        1.62655
H          2.78667        0.93091        0.10660
H          2.09977        0.65890       -1.52346
