19
dsC7O2H10nsd_0059.xyz
C         -3.75309       -0.26613       -0.00032
C         -2.39447        0.40787        0.00163
O         -1.40242       -0.62904       -0.00093
C         -0.11854       -0.26020       -0.00039
C          1.01168       -1.01711        0.00004
C          2.10724       -0.07948        0.00007
C          3.56730       -0.40838        0.00051
C          1.54731        1.15586       -0.00048
O          0.17008        1.06077       -0.00062
H         -3.87400       -0.89676        0.88464
H         -4.54295        0.49085        0.00198
H         -3.87412       -0.89153       -0.88898
H         -2.26082        1.04371       -0.88145
H         -2.26108        1.03902        0.88816
H          1.05953       -2.09341        0.00036
H          3.84380       -0.99879        0.88153
H          3.84447       -0.99820       -0.88070
H          4.17712        0.49940        0.00104
H          1.94215        2.15723       -0.00055
