19
dsC7O2H10nsd_2153.xyz
O         -2.24847       -0.54935       -0.40061
C         -0.92248       -0.21983       -0.07202
C         -0.69405        0.62572        1.22893
C          0.12359        1.63006        0.40518
C          1.17481        0.97383       -0.46064
C          1.93639       -0.30449       -0.15783
O          1.16537       -1.30777        0.48146
C         -0.11008       -1.51123       -0.10107
C         -0.26239        0.91564       -0.89310
H         -2.75157        0.26822       -0.47878
H         -1.64608        1.06194        1.54728
H         -0.21428        0.13782        2.08001
H          0.16351        2.69670        0.59415
H          1.77458        1.69354       -1.01436
H          2.34471       -0.69042       -1.10908
H          2.78215       -0.11279        0.51124
H         -0.02796       -1.87788       -1.13723
H         -0.60436       -2.27927        0.50064
H         -0.63066        1.30085       -1.83740
