19
dsC7O2H10nsd_3725.xyz
C         -2.57960        0.07974       -0.57830
C         -1.49321       -0.84177       -0.08596
O         -0.85062       -0.50536        1.16435
C         -0.07359       -0.47980       -0.04665
C          1.08923       -1.46656       -0.12448
C          2.29385       -0.55403       -0.08438
C          1.96286        0.72884       -0.21910
C          0.47178        0.92331       -0.40304
O         -0.10200        1.95078        0.37911
H         -2.79997       -0.12925       -1.63095
H         -3.50059       -0.07990       -0.00801
H         -2.27894        1.12425       -0.47783
H         -1.72420       -1.90681       -0.15785
H          1.04885       -2.17908        0.70674
H          1.05804       -2.05348       -1.05276
H          3.30352       -0.93491        0.02168
H          2.64564        1.56997       -0.23462
H          0.24895        1.17000       -1.45163
H         -0.40821        1.51743        1.18897
