19
dsC7O2H10nsd_3392.xyz
C          2.48920       -0.26136       -0.20920
C          1.00894       -0.18513        0.03167
C          0.02782       -1.22262       -0.48674
O         -1.20333       -0.84035       -1.04779
C         -1.92598       -0.13044       -0.03495
C         -0.88742        0.18996        1.03994
C          0.09576       -1.00707        0.98119
C          0.25572        1.07259        0.42889
O         -0.03438        1.96911       -0.62113
H          2.76103        0.27416       -1.12568
H          3.05303        0.18416        0.61921
H          2.82394       -1.29825       -0.31855
H          0.44678       -2.10824       -0.95100
H         -2.34577        0.77529       -0.48339
H         -2.74275       -0.75445        0.35666
H         -1.29982        0.50042        1.99967
H          0.33430       -1.72615        1.75309
H          0.80120        1.57984        1.23758
H         -0.31444        2.80748       -0.24104
