19
dsC7O2H10nsd_6090.xyz
O          4.56536       -0.22115        0.00007
C          3.25500       -0.76544       -0.00155
C          2.26959        0.39637        0.00121
C          0.81092       -0.06508       -0.00129
C         -0.17273        1.12316        0.00247
C         -1.57010        0.71890        0.00053
C         -2.71859        0.34268       -0.00111
C         -4.10091       -0.05620       -0.00363
O         -4.48675       -1.20336        0.00375
H          5.19408       -0.94866        0.00007
H          3.08376       -1.39500       -0.89012
H          3.08344       -1.39956        0.88368
H          2.47002        1.01844        0.88242
H          2.47138        1.02361       -0.87601
H          0.60995       -0.68689       -0.88133
H          0.60885       -0.69322        0.87400
H          0.01308        1.75645        0.88044
H          0.01417        1.76320       -0.87032
H         -4.81666        0.79146       -0.01318
