19
dsC7O2H10nsd_0580.xyz
C         -2.19083       -0.66214       -0.03518
O         -2.13363        0.78922        0.07963
C         -0.71493        0.70023        0.35486
C          0.24846        1.70991       -0.16878
C          1.53939        1.36927       -0.18927
C          2.08389        0.04964        0.34810
C          1.53125       -1.28322       -0.21609
O          0.19657       -1.62227        0.16022
C         -0.68541       -0.66477       -0.33508
H         -2.44377       -1.13440        0.92399
H         -2.88384       -0.98790       -0.81458
H         -0.56748        0.56234        1.44135
H         -0.10695        2.67461       -0.51673
H          2.27446        2.08208       -0.55256
H          3.16498        0.02034        0.17274
H          1.95679        0.02240        1.44055
H          1.61151       -1.27480       -1.31485
H          2.15082       -2.10013        0.16392
H         -0.53097       -0.51357       -1.41406
