19
dsC7O2H10nsd_4684.xyz
C         -2.42412       -1.11957       -0.61354
C         -2.08458       -0.19800        0.57346
C         -0.97171        0.76814        0.20680
O         -1.17056        1.80615       -0.38232
C          0.44778        0.39062        0.62310
O          0.68387       -1.04651        0.56410
C          1.65097       -0.84479       -0.47835
C          2.80491       -0.03299        0.01389
C          1.52810        0.66004       -0.41556
H         -1.56970       -1.75157       -0.86687
H         -3.26703       -1.76866       -0.36054
H         -2.69769       -0.52897       -1.49242
H         -2.96051        0.40111        0.84051
H         -1.78957       -0.80330        1.43585
H          0.62282        0.78745        1.63527
H          1.66723       -1.55635       -1.29500
H          3.08668       -0.08163        1.06237
H          3.63136        0.07449       -0.68202
H          1.46194        1.40959       -1.19018
