19
dsC7O2H10nsd_0552.xyz
C         -2.22720        0.77953       -0.04930
C         -2.22721       -0.77956       -0.04923
C         -0.78210       -0.78951        0.51386
C         -0.78212        0.78953        0.51384
C          0.31505        0.78337       -0.58328
O          1.61735        1.13476       -0.15363
C          2.15062       -0.00003        0.49212
O          1.61734       -1.13476       -0.15371
C          0.31504       -0.78333       -0.58330
H         -2.35054        1.26243       -1.02410
H         -2.96154        1.21163        0.63394
H         -2.96150       -1.21157        0.63410
H         -2.35061       -1.26256       -1.02398
H         -0.57322       -1.41062        1.38563
H         -0.57329        1.41066        1.38562
H          0.09965        1.33635       -1.50081
H          3.23828       -0.00003        0.37746
H          1.88318       -0.00006        1.56333
H          0.09960       -1.33628       -1.50084
