19
dsC7O2H10nsd_4977.xyz
O         -2.73103        0.05023       -0.09172
C         -1.66795       -0.77383        0.38297
C         -0.37840       -0.08250        0.14413
C          0.36074        0.26861       -1.14079
C          0.49802        1.72996       -0.72610
C          0.31566        1.21836        0.73018
C          1.59126        0.36582        1.00512
C          1.02638       -0.58627       -0.04473
O          1.37466       -1.90496       -0.26415
H         -3.56076       -0.38145        0.13440
H         -1.79046       -0.98576        1.45781
H         -1.64739       -1.74409       -0.13861
H          0.18138       -0.15422       -2.12200
H          1.42813        2.26309       -0.95766
H         -0.36057        2.31916       -1.05848
H         -0.09547        1.85935        1.50651
H          2.56519        0.84085        0.83410
H          1.56892       -0.09214        1.99813
H          2.08761       -1.92772       -0.91192
