19
dsC7O2H10nsd_2911.xyz
C          1.66004        1.57377        0.24857
C          0.57741        0.57804       -0.05378
O         -0.56289        1.14095       -0.68305
C         -1.74914        0.64803       -0.10587
C         -2.18202       -0.75726       -0.43150
C         -1.41255       -0.47157        0.84629
C          0.09683       -0.53555        0.85807
C          0.86899       -0.87019       -0.39655
O          2.15199       -1.37719       -0.15910
H          1.95744        2.10661       -0.66148
H          1.31861        2.31635        0.97665
H          2.53686        1.06268        0.65269
H         -2.48188        1.42389        0.08937
H         -3.23818       -0.98029       -0.31801
H         -1.70369       -1.28274       -1.24895
H         -1.91939       -0.58715        1.79644
H          0.59968       -0.73566        1.79689
H          0.34509       -1.31143       -1.24274
H          2.71536       -1.11392       -0.89503
