19
dsC7O2H10nsd_1996.xyz
C         -2.48528        0.43294       -0.03902
C         -1.04318        0.02157       -0.09023
O         -0.74665       -1.27686       -0.61673
C         -0.36808       -0.99204        0.73936
C          1.07391       -0.46920        0.92263
C          1.77263       -0.49899       -0.44866
O          1.08298        0.51387       -1.20962
C          0.09508        1.06426       -0.34503
C          0.79123        1.05651        1.02913
H         -2.84358        0.71568       -1.03505
H         -3.10733       -0.38834        0.32669
H         -2.62230        1.29517        0.62285
H         -0.85612       -1.59401        1.50125
H          1.63780       -0.93129        1.73266
H          2.83389       -0.23238       -0.36461
H          1.67651       -1.46203       -0.95544
H         -0.23713        2.01956       -0.75249
H          1.68568        1.68504        1.06726
H          0.12411        1.30617        1.85867
