19
dsC7O2H10nsd_4734.xyz
C          1.70641       -0.41716        1.44935
C          1.17319       -0.37590       -0.00090
C          1.75341       -1.54002       -0.83061
C          1.56759        0.97606       -0.66358
O          1.05299        2.09970        0.01182
C         -0.28852       -0.45323        0.02174
C         -1.49849       -0.45164        0.02942
C         -2.93766       -0.48907        0.04521
O         -3.64678        0.48629       -0.05763
H          1.37211       -1.31983        1.96711
H          2.80120       -0.41230        1.43298
H          1.36527        0.45899        2.00344
H          1.36415       -1.53225       -1.85273
H          2.84399       -1.45481       -0.87606
H          1.50420       -2.50333       -0.37800
H          2.65846        1.06958       -0.63150
H          1.26080        0.95846       -1.72025
H          0.09058        2.05863       -0.04401
H         -3.36598       -1.50522        0.16168
