19
dsC7O2H10nsd_1427.xyz
C          2.20942        1.11793       -0.00567
C          1.20732       -0.02682       -0.00452
O          1.89105       -1.26929       -0.08476
C         -0.01390        0.01653        0.95741
C         -0.71705        1.03915       -0.00210
C         -2.19826        0.68338       -0.00321
O         -2.13500       -0.74959        0.00743
C         -0.74238       -0.99001        0.01086
C         -0.01171        0.00502       -0.94832
H          2.84522        1.05621       -0.89425
H          1.73406        2.10070        0.01271
H          2.86141        1.05440        0.87519
H          2.57207       -1.28027        0.59571
H         -0.02261        0.02907        2.04908
H         -0.44090        2.09190       -0.00934
H         -2.73134        1.04666        0.88464
H         -2.72735        1.03354       -0.89878
H         -0.52545       -2.05270        0.01606
H         -0.01411        0.00042       -2.03918
