19
dsC7O2H10nsd_2384.xyz
C         -1.91631       -1.03235       -0.71855
C         -0.69157       -0.42944       -0.05372
C         -1.02314        0.42436        1.20099
O         -0.88944        1.63829        0.43281
C         -0.24012        0.92329       -0.66413
C          1.24267        1.12126       -0.65810
C          2.05908        0.21041       -0.13397
C          1.57330       -1.09105        0.43358
O          0.26598       -1.45680        0.02808
H         -2.70602       -0.28226       -0.81381
H         -1.66020       -1.40647       -1.71408
H         -2.29441       -1.86919       -0.12371
H         -2.02652        0.31161        1.62571
H         -0.27916        0.35989        2.00574
H         -0.69270        1.20422       -1.62222
H          1.62624        2.05969       -1.04897
H          3.13099        0.38358       -0.07750
H          2.22204       -1.91330        0.10939
H          1.64405       -1.05853        1.53561
