19
dsC7O2H10nsd_3306.xyz
C         -1.95925       -1.12157       -0.49110
C         -0.62681       -0.47920       -0.19699
C          0.53445       -1.31603        0.34897
O          1.37135       -0.88434        1.38058
C          0.67221       -0.68484       -0.98856
C          1.43061        0.64385       -1.05918
C          0.73508        1.59216       -0.06274
C         -0.62547        0.95932        0.23877
O         -1.58085        1.52941        0.70980
H         -2.63456       -0.99559        0.36062
H         -2.44019       -0.65956       -1.35976
H         -1.85162       -2.19111       -0.69533
H          0.32350       -2.38611        0.36102
H          0.89917       -0.98286        2.21458
H          0.68713       -1.33045       -1.86047
H          2.49285        0.51123       -0.83679
H          1.35644        1.03865       -2.07709
H          1.28570        1.66722        0.87954
H          0.59259        2.60578       -0.44447
