19
dsC7O2H10nsd_3641.xyz
O          0.56987        1.91429       -0.62239
C          1.04634        0.94728        0.30498
C         -0.07490        0.41447        1.21307
C         -0.80707       -0.69665        0.37654
C          0.08310       -0.89551       -0.89585
C          1.44242       -0.28190       -0.53209
O          2.29061       -1.16240        0.19275
C         -2.18897       -0.36860        0.05916
C         -3.32953       -0.09218       -0.20308
H          0.12226        2.61064       -0.13231
H          1.90273        1.32933        0.87660
H          0.35256       -0.01762        2.12423
H         -0.75846        1.20601        1.52990
H         -0.81638       -1.62422        0.96116
H          0.17172       -1.94478       -1.18603
H         -0.34929       -0.34124       -1.73030
H          2.01311        0.01890       -1.41342
H          1.78618       -1.56202        0.90839
H         -4.33660        0.14848       -0.43753
