19
dsC7O2H10nsd_4991.xyz
C         -2.81892       -0.32216       -0.55000
C         -1.82175       -0.60916        0.58123
C         -0.45413       -0.08415        0.28488
O          0.27405       -0.72998       -0.81241
C          1.42858       -0.76075       -0.03615
O          2.45331       -1.30111       -0.29874
C          0.82344        0.01315        1.09876
C          0.12713        1.26626        0.51741
C          0.72540        2.16039       -0.54451
H         -2.93747        0.75434       -0.70848
H         -2.47543       -0.76589       -1.48855
H         -3.80108       -0.74091       -0.31377
H         -2.16721       -0.15461        1.51706
H         -1.75374       -1.68929        0.75586
H          1.02567       -0.12011        2.15189
H         -0.38933        1.79905        1.31580
H         -0.04338        2.81683       -0.96547
H          1.51310        2.79173       -0.12244
H          1.15150        1.57612       -1.36252
