19
dsC7O2H10nsd_5744.xyz
C         -3.24697       -0.51133       -0.33890
C         -2.24318        0.47245        0.26878
C         -0.84980        0.31313       -0.31473
O         -0.29728       -1.00889       -0.02612
C          0.74552       -0.45022        0.79915
C          0.30319        1.00469        0.43729
C          1.58859        1.21181       -0.40860
C          2.02931       -0.22508       -0.04095
O          2.99277       -0.88695       -0.28376
H         -4.23196       -0.40681        0.12478
H         -3.36342       -0.34436       -1.41536
H         -2.90664       -1.54016       -0.19311
H         -2.56672        1.50817        0.09785
H         -2.18931        0.33245        1.35570
H         -0.86594        0.49335       -1.39874
H          0.81197       -0.90843        1.78945
H          0.04983        1.76520        1.17314
H          1.45734        1.42306       -1.47386
H          2.28099        1.95147        0.00694
