19
dsC7O2H10nsd_1449.xyz
C          1.02134        1.81380        0.00001
C          0.90141        0.28979       -0.00001
O          2.23271       -0.18716       -0.00004
C          0.02247       -0.56197        0.98183
O          0.19322       -1.66599        0.00003
C          0.02245       -0.56201       -0.98181
C         -1.45373       -0.21330       -0.76345
C         -1.87466        1.01761       -0.00004
C         -1.45371       -0.21325        0.76346
H          2.08269        2.06650        0.00019
H          0.56798        2.26451       -0.88632
H          0.56769        2.26452        0.88619
H          2.15415       -1.15194       -0.00003
H          0.36587       -0.81916        1.98428
H          0.36585       -0.81922       -1.98425
H         -2.18984       -0.76397       -1.33685
H         -1.29879        1.92797       -0.00010
H         -2.94668        1.19576       -0.00003
H         -2.18982       -0.76386        1.33692
