19
dsC7O2H10nsd_0756.xyz
O         -2.35952       -1.00237        0.28776
C         -1.33890       -0.39001        0.11997
O         -1.40089        0.85553       -0.42261
C         -0.19975        1.61631       -0.62698
C          0.73659        1.52768        0.57170
C          1.16365        0.08371        0.82216
C          2.07809       -0.55918       -0.26309
C          0.88827       -1.42040       -0.76370
C          0.03018       -0.93537        0.45603
H          0.29437        1.27697       -1.54645
H         -0.54080        2.64040       -0.79496
H          1.60949        2.16900        0.40163
H          0.20812        1.92114        1.44817
H          1.53983       -0.02492        1.84173
H          2.50939        0.13343       -0.99183
H          2.89332       -1.14961        0.16105
H          0.48818       -1.10731       -1.73119
H          1.05019       -2.49873       -0.80065
H         -0.11761       -1.72216        1.19481
