19
dsC7O2H10nsd_2651.xyz
O         -1.63764       -1.85028        0.02161
C         -1.37177       -0.54343        0.43967
C         -1.20820        0.55332       -0.58071
O         -1.70853        1.80914       -0.21920
C         -0.00479       -0.01264        0.14004
C          0.93687        0.68756        1.13941
C          2.09866       -0.12383        0.53939
C          2.21228        0.11922       -0.93954
C          1.14159       -0.81366       -0.44134
H         -2.55019       -1.88406       -0.28510
H         -1.82092       -0.24297        1.38797
H         -1.33889        0.26730       -1.62621
H         -1.07878        2.47645       -0.51143
H          1.02103        1.77812        1.06600
H          0.71334        0.42436        2.17638
H          2.90920       -0.55988        1.10970
H          1.94696        1.08568       -1.36398
H          3.05677       -0.36049       -1.42460
H          1.08302       -1.85471       -0.72957
