19
dsC7O2H10nsd_2371.xyz
C         -1.34124        1.90692       -0.24263
C         -0.88913        0.49057       -0.10299
O         -1.64188       -0.50719       -0.80081
C         -1.49432       -1.43945        0.30239
C         -0.61817       -0.46794        1.08255
C          0.48544       -0.01221        0.17590
C          1.70856        0.79827        0.59418
C          2.46386       -0.18359       -0.32906
O          1.24086       -0.87257       -0.67779
H         -2.38313        2.01841        0.07356
H         -0.72175        2.57676        0.36046
H         -1.26905        2.22452       -1.28924
H         -2.46562       -1.63570        0.76907
H         -1.02856       -2.38000       -0.01069
H         -0.61770       -0.32058        2.15635
H          1.71605        1.84112        0.27087
H          1.96989        0.74533        1.65292
H          2.94209        0.26175       -1.20828
H          3.17591       -0.84899        0.17181
