19
dsC7O2H10nsd_3017.xyz
O          2.48058       -0.56682       -0.58860
C          1.08481       -0.50088       -0.61148
C          0.19895       -1.16204        0.50207
C          0.60433        0.01614        1.44733
C          0.30215        0.67498        0.07334
O          0.37849        2.03373       -0.15606
C         -0.93339       -0.25268        0.00301
C         -2.33818       -0.05117        0.43905
C         -2.01052       -0.41272       -1.01143
H          2.80242       -0.23691        0.25655
H          0.78241       -0.73459       -1.63533
H          0.13485       -2.21776        0.75334
H         -0.09166        0.25136        2.25414
H          1.63613        0.04198        1.81092
H          0.32174        2.18688       -1.10573
H         -2.81758       -0.80943        1.05030
H         -2.67518        0.96186        0.63830
H         -2.26989       -1.40961       -1.35428
H         -2.14467        0.36122       -1.76227
