19
dsC7O2H10nsd_3894.xyz
O         -3.17294       -0.72694       -0.02600
C         -1.79779       -0.58352       -0.25136
C         -1.24329        0.74042       -0.85536
C         -0.05155        0.60344        0.10149
C          0.93783        1.62769        0.50495
C          1.38601        0.46550       -0.38506
C          2.27526       -0.55402        0.20915
O          3.11917       -1.17055       -0.39430
C         -0.82585       -0.41679        0.95411
H         -3.46854        0.01215        0.51655
H         -1.50801       -1.44007       -0.86566
H         -1.04607        0.77002       -1.92960
H         -1.87918        1.59340       -0.58771
H          0.90257        2.60907        0.04392
H          1.29451        1.62382        1.53135
H          1.57589        0.67199       -1.43344
H          2.11519       -0.71878        1.30130
H         -0.31224       -1.30822        1.31896
H         -1.32762        0.07029        1.79916
