19
dsC7O2H10nsd_2060.xyz
C         -2.43635       -0.94395       -0.36164
C         -1.10935       -0.32845        0.02653
C         -1.02987        0.51486        1.28226
C         -0.90445        1.15747       -0.07853
C          0.44452        1.62183       -0.57591
O          1.53850        0.83665       -0.08012
C          1.45179       -0.51753       -0.01566
O          2.41973       -1.14887        0.30790
C          0.11147       -1.15048       -0.35793
H         -2.58785       -1.90625        0.14110
H         -3.27009       -0.29008       -0.08781
H         -2.49120       -1.12206       -1.44222
H         -1.94972        0.68210        1.83172
H         -0.14534        0.44959        1.90693
H         -1.73240        1.76696       -0.43000
H          0.46924        1.61303       -1.67469
H          0.66568        2.64147       -0.24743
H          0.10224       -1.32061       -1.44475
H          0.10708       -2.13881        0.11007
