19
dsC7O2H10nsd_5069.xyz
C          2.87154        0.34562       -0.06215
C          1.84142       -0.65602       -0.60408
C          0.45498       -0.39521       -0.10058
O          0.12343       -0.77082        1.23738
C         -0.65880       -1.34943        0.16354
C         -1.66307       -0.26645       -0.20595
O         -2.84490       -0.23771       -0.38048
C         -0.51421        0.76293       -0.45457
C         -0.48512        2.04429        0.36821
H          2.63610        1.36834       -0.37270
H          2.89661        0.32183        1.03110
H          3.87257        0.10592       -0.43145
H          1.82719       -0.62345       -1.70039
H          2.12587       -1.67408       -0.31633
H         -0.70989       -2.43091        0.10944
H         -0.50147        0.97830       -1.53128
H          0.35570        2.68546        0.08573
H         -1.40778        2.61139        0.21151
H         -0.40355        1.81102        1.43268
