19
dsC7O2H10nsd_5283.xyz
C          0.15685        2.45566       -0.22176
O         -0.25604        1.45450        0.70023
C         -0.57732        0.25996        0.10571
C         -1.88674       -0.02822       -0.64599
C         -1.88177       -1.45781       -0.00425
C         -0.58410       -1.10244        0.73143
C          0.48796       -0.75880       -0.31454
C          1.85267       -0.55048        0.21440
O          2.86310       -0.83683       -0.38412
H         -0.63061        2.67639       -0.95466
H          0.36444        3.35485        0.36097
H          1.06536        2.15181       -0.75874
H         -2.70768        0.58620       -0.26947
H         -1.85733        0.03531       -1.73717
H         -2.72583       -1.61386        0.67014
H         -1.81723       -2.30293       -0.69501
H         -0.29792       -1.40924        1.73009
H          0.45161       -1.22652       -1.29597
H          1.89339       -0.10050        1.23095
