19
dsC7O2H10nsd_1485.xyz
C          1.17024       -1.07584        1.28644
C          0.80432       -0.39218       -0.02769
C          1.97595       -0.43817       -1.02323
C         -0.54418       -0.75977       -0.74477
C         -1.75749       -1.03655        0.15231
O         -2.02758        0.37890        0.31395
C         -1.01588        0.72896       -0.66217
C          0.29548        1.07037        0.07832
O          0.75285        2.06440        0.56074
H          0.36276       -1.01856        2.02098
H          1.41595       -2.13155        1.12583
H          2.04569       -0.58805        1.72626
H          1.72368        0.04556       -1.97310
H          2.84916        0.07371       -0.60857
H          2.25001       -1.47699       -1.23727
H         -0.45545       -1.31755       -1.67531
H         -2.58680       -1.53189       -0.36796
H         -1.58555       -1.54022        1.10900
H         -1.39223        1.35826       -1.47273
