19
dsC7O2H10nsd_6039.xyz
C         -3.41339        0.89228        0.06730
O         -2.38576       -0.03217        0.33485
C         -1.29304        0.08798       -0.54652
C         -0.26330       -0.95274       -0.14659
C          0.57482       -0.67033        1.11448
C          1.78395       -0.66037        0.13911
O          0.90502       -0.88017       -0.99757
C          2.56032        0.56418        0.04316
C          3.20204        1.57880       -0.01983
H         -3.82750        0.75989       -0.94463
H         -4.20663        0.72119        0.79908
H         -3.06141        1.93182        0.15967
H         -1.59931       -0.08232       -1.59259
H         -0.84430        1.09410       -0.49442
H         -0.71960       -1.94980       -0.17563
H          0.36968        0.28774        1.59211
H          0.59535       -1.45964        1.86549
H          2.45930       -1.51594        0.26753
H          3.77195        2.47292       -0.08153
