19
dsC7O2H10nsd_0436.xyz
C          2.26451       -0.69435        0.69988
O          2.37204        0.59478        0.09059
C          1.48756       -0.35843       -0.50282
C          0.03032       -0.04219       -0.45334
C         -0.47688        1.30584       -0.90693
C         -0.57481        0.91496        0.54700
C         -1.88383        0.28035        0.97538
O         -2.19825       -0.67069       -0.04098
C         -0.97806       -1.17910       -0.56786
H          3.14906       -1.32386        0.61695
H          1.76672       -0.70972        1.66801
H          1.84865       -0.75095       -1.45595
H          0.27421        2.04585       -1.15908
H         -1.38838        1.34414       -1.49536
H          0.04377        1.42491        1.27513
H         -1.76842       -0.20809        1.95701
H         -2.72674        0.97683        1.03491
H         -0.62234       -2.05032        0.00808
H         -1.17958       -1.50408       -1.59436
