19
dsC7O2H10nsd_6022.xyz
C         -3.51695       -0.12249        0.07034
C         -2.19426        0.55940       -0.23230
O         -1.16062       -0.40931       -0.14065
C          0.09555        0.06975       -0.47252
C          1.22776       -0.98959       -0.26081
C          2.44396       -0.18158       -0.72646
C          2.26761        0.96707       -0.06271
C          0.97479        0.68227        0.70206
O          1.17802       -0.68665        1.16708
H         -4.33888        0.59685        0.00758
H         -3.70396       -0.92908       -0.64407
H         -3.50484       -0.55136        1.07604
H         -2.20475        1.00165       -1.24222
H         -2.01040        1.37955        0.47945
H          0.08819        0.62571       -1.42088
H          1.11234       -2.04215       -0.51305
H          3.19859       -0.48174       -1.43806
H          2.83351        1.88688       -0.07814
H          0.60022        1.37245        1.45633
