19
dsC7O2H10nsd_4928.xyz
C         -2.36425        0.45749        0.63732
C         -1.21695       -0.53430        0.53663
C         -1.14767       -1.39979       -0.73917
O          0.13285       -0.84626       -1.11967
C          0.18886       -0.01363        0.08129
C          1.37123       -0.50114        0.93243
O          2.56573       -0.47450        0.19004
C          0.30050        1.40071       -0.24360
C          0.38001        2.57537       -0.48612
H         -2.22193        1.14402        1.47746
H         -2.45178        1.05814       -0.27222
H         -3.31017       -0.07264        0.79176
H         -1.13954       -1.11813        1.45823
H         -1.09547       -2.48396       -0.58743
H         -1.91654       -1.17978       -1.48961
H          1.50711        0.14632        1.80462
H          1.13646       -1.51744        1.28951
H          2.36909       -0.92932       -0.63929
H          0.46377        3.61062       -0.70872
