19
dsC7O2H10nsd_4975.xyz
C         -2.60864       -0.10419        0.34704
O         -1.66735       -0.48797       -0.65013
C         -0.37289       -0.34241       -0.25998
C          0.88139       -0.25842       -1.10058
C          1.53633       -1.42087       -0.35902
C          0.59078       -1.04662        0.81039
O          1.06618        0.25468        1.23839
C          0.56127        0.79575        0.01630
C          0.52271        2.27233       -0.17882
H         -2.48914        0.95156        0.62065
H         -3.60148       -0.26078       -0.07902
H         -2.50225       -0.71797        1.25098
H          0.96504        0.03398       -2.13975
H          1.27058       -2.38226       -0.80631
H          2.60713       -1.37874       -0.13792
H          0.35821       -1.71923        1.63330
H          1.53424        2.69135       -0.21252
H          0.02378        2.51340       -1.12212
H         -0.02249        2.76157        0.63470
