19
dsC7O2H10nsd_3197.xyz
C         -2.71756       -0.18153        0.25138
C         -1.24736        0.00523        0.00304
C         -0.69057        1.34410       -0.54862
C          0.63626        1.09784        0.21512
C          1.51605        0.02043       -0.46024
O          2.75204       -0.01926        0.22786
C          0.53491       -1.06768        0.05933
O         -0.66793       -1.11313       -0.73110
C         -0.08015       -0.03814        1.04236
H         -3.26232       -0.19796       -0.69959
H         -2.90631       -1.12771        0.76705
H         -3.11666        0.63625        0.85951
H         -0.65518        1.45120       -1.63671
H         -1.22996        2.19383       -0.11742
H          1.16779        1.94521        0.64520
H          1.64608        0.08054       -1.55004
H          3.21217       -0.82367       -0.03533
H          0.92886       -2.06023        0.29694
H         -0.16673       -0.11986        2.12214
