19
dsC7O2H10nsd_4903.xyz
O         -2.62136       -0.59303       -0.22690
C         -1.33067       -1.00990       -0.68231
C         -0.20643       -0.22543       -0.03489
C         -0.25746        1.27357       -0.28750
O         -1.35774        1.89500        0.35197
C          0.31503       -0.70931        1.29110
C          1.14769       -0.92684        0.03562
C          2.37650       -0.21601       -0.16714
C          3.41629        0.36258       -0.34448
H         -2.65962       -0.76044        0.72196
H         -1.19228       -2.08909       -0.51914
H         -1.34163       -0.83727       -1.76391
H          0.64641        1.75039        0.10060
H         -0.27357        1.45024       -1.37629
H         -2.14189        1.40139        0.07729
H          0.66539        0.03622        1.99523
H         -0.12482       -1.59166        1.74626
H          1.15728       -1.94514       -0.34588
H          4.33178        0.87762       -0.49908
