19
dsC7O2H10nsd_0079.xyz
C          3.23488       -0.14776       -0.64017
C          2.21340        0.06886       -0.04421
C          0.95269        0.33604        0.65912
C          0.11740        1.40330       -0.09778
C         -1.39158        1.32522        0.16456
O         -2.03005        0.35271       -0.64698
C         -1.88671       -0.98362       -0.21351
C         -0.44248       -1.47433       -0.13797
O          0.24457       -0.86497        0.94801
H          4.14395       -0.34268       -1.15364
H          1.18996        0.72719        1.65552
H          0.49735        2.39050        0.18857
H          0.26938        1.30811       -1.17676
H         -1.60071        1.14450        1.22994
H         -1.85078        2.27917       -0.11304
H         -2.34436       -1.11918        0.78025
H         -2.44445       -1.59291       -0.93370
H         -0.44461       -2.55227        0.06238
H          0.08253       -1.31066       -1.08797
