19
dsC7O2H10nsd_2854.xyz
O         -2.54341       -0.83986       -0.06915
C         -1.31074       -0.30696       -0.51145
C         -1.15230        1.09220        0.06700
C          0.30667        1.51717        0.05901
C          1.27511        0.80726       -0.88675
C          1.22702       -0.67813       -0.42689
O          2.34441       -1.03680        0.37464
C         -0.08801       -0.76254        0.35580
C         -0.19382        0.58500        1.13191
H         -2.56120       -1.77436       -0.30065
H         -1.20663       -0.42480       -1.60222
H         -1.95711        1.81214        0.15567
H          0.47672        2.55706        0.31522
H          0.99024        0.92152       -1.93826
H          2.29773        1.18223       -0.78448
H          1.25031       -1.37210       -1.27330
H          2.32931       -0.47407        1.15768
H         -0.23184       -1.69856        0.89554
H         -0.17916        0.76024        2.19903
