19
dsC7O2H10nsd_5442.xyz
C         -3.27827        0.31459        0.10942
O         -2.27026       -0.65333       -0.12692
C         -1.03050       -0.28513        0.36644
C          0.12538       -0.94709       -0.26033
C         -0.16477        0.54836       -0.60531
C          1.12545        0.91440        0.04541
O          1.79792        1.90835        0.06778
C          1.41903       -0.55319        0.48054
C          2.72458       -1.07954       -0.11058
H         -3.05252        1.26481       -0.39355
H         -4.20942       -0.09272       -0.28910
H         -3.40292        0.50894        1.18444
H         -1.02268       -0.04369        1.43266
H          0.01031       -1.79286       -0.92540
H         -0.63415        0.99526       -1.47292
H          1.38944       -0.72814        1.56276
H          3.57401       -0.54334        0.32101
H          2.84777       -2.14723        0.09533
H          2.75339       -0.93553       -1.19568
