19
dsC7O2H10nsd_2174.xyz
C         -1.86516        1.44292       -0.26776
C         -1.00282        0.24506       -0.03145
O         -1.64656       -1.07140        0.19494
C         -0.20704       -1.35295        0.28992
C         -0.01836       -0.06216        1.13753
C          1.34008        0.63572        1.09482
C          2.08738        0.18637       -0.16415
O          1.22280        0.10354       -1.29299
C         -0.00995       -0.48485       -0.99098
H         -1.24010        2.32016       -0.46373
H         -2.51219        1.28325       -1.13578
H         -2.49476        1.65193        0.60270
H          0.08410       -2.38195        0.50220
H         -0.49740       -0.09513        2.11894
H          1.19619        1.72329        1.09944
H          1.93835        0.38917        1.97893
H          2.89098        0.87429       -0.43846
H          2.53693       -0.80258        0.01716
H         -0.45685       -0.88029       -1.90455
