19
dsC7O2H10nsd_0880.xyz
O         -2.94705       -0.19626        0.43442
C         -2.14563        0.60391        0.02443
C         -0.76420        0.26204       -0.49664
C         -0.43568       -1.22580       -0.30266
O          0.94517       -1.48160       -0.49687
C          1.72377       -0.94619        0.55825
C          1.56198        0.55667        0.68166
C          1.60921        1.40530       -0.56049
C          0.29085        1.17554        0.14032
H         -2.38689        1.69273       -0.00358
H         -0.80471        0.48600       -1.57442
H         -0.74605       -1.54187        0.70431
H         -0.97547       -1.84182       -1.02477
H          1.44405       -1.42834        1.51062
H          2.76252       -1.21328        0.33704
H          1.97069        0.97934        1.59480
H          2.06039        2.38957       -0.50174
H          1.75894        0.88966       -1.50389
H         -0.11018        2.02202        0.69199
