19
dsC7O2H10nsd_3452.xyz
C         -2.41122       -0.19345       -0.39516
C         -1.24128        0.33924        0.43782
C         -0.75066        1.71670        0.02840
C          0.57728        1.80067       -0.02817
C          1.24242        0.50298        0.38335
O          2.33321        0.07958       -0.40109
C          0.05213       -0.47672        0.32670
C          0.20790       -1.90554        0.58399
O          0.14285       -1.40917       -0.76492
H         -2.70777       -1.19649       -0.07300
H         -3.28096        0.46196       -0.28534
H         -2.14529       -0.24537       -1.45323
H         -1.54993        0.36249        1.49443
H         -1.44297        2.52822       -0.17072
H          1.15588        2.68144       -0.28039
H          1.61808        0.58647        1.41390
H          1.94979       -0.45171       -1.11366
H          1.18242       -2.28796        0.88350
H         -0.64719       -2.50566        0.89104
