19
dsC7O2H10nsd_2579.xyz
C         -2.92875       -0.39917       -0.43277
C         -1.51042       -0.07490       -0.04039
C         -1.09560        1.19133        0.05440
C          0.28902        1.68931        0.38581
O          1.36332        1.05011       -0.32234
C          1.65612       -0.25531       -0.11064
O          2.59117       -0.74409       -0.68506
C          0.74369       -1.03254        0.82232
C         -0.64389       -1.28774        0.20795
H         -2.95334       -1.01068       -1.34382
H         -3.42906       -0.98580        0.34818
H         -3.51718        0.50322       -0.61456
H         -1.81911        1.98078       -0.13560
H          0.37240        2.73657        0.08764
H          0.49129        1.65431        1.46480
H          1.24145       -1.98466        1.01130
H          0.63507       -0.51583        1.78156
H         -0.52641       -1.84351       -0.73341
H         -1.19212       -1.96836        0.87308
