19
dsC7O2H10nsd_0451.xyz
C         -2.50691       -1.04100        0.40047
O         -2.93312        0.24767       -0.04683
C         -1.58891       -0.15476       -0.32729
C         -0.50216        0.60420        0.35401
C          0.28800        1.64597       -0.41582
C          0.93346        0.35922       -0.01519
C          2.12495        0.12844        0.90885
O          2.63301       -0.90016        0.03105
C          1.53667       -0.73587       -0.89380
H         -2.40208       -1.14955        1.47955
H         -2.96264       -1.89014       -0.10731
H         -1.40708       -0.37401       -1.38177
H         -0.70427        0.82101        1.40019
H          0.04408        1.78825       -1.46500
H          0.57787        2.55414        0.10292
H          2.82463        0.96928        1.00567
H          1.89143       -0.26268        1.90813
H          1.88037       -0.41661       -1.88662
H          0.94809       -1.65711       -0.99697
