19
dsC7O2H10nsd_3229.xyz
O         -1.23978        1.78814        0.02639
C         -0.46291        0.79755       -0.62761
C          1.03558        0.93032       -0.28546
C          1.05976        0.56091        1.21889
C          0.30696       -0.75997        1.09041
C          0.64670       -1.34002       -0.28300
C          1.60173       -0.35076       -0.94878
C         -0.65560       -0.60930       -0.06876
O         -1.88966       -1.24726       -0.14769
H         -2.16393        1.58806       -0.15501
H         -0.63456        0.82891       -1.71416
H          1.49997        1.87496       -0.56504
H          2.07925        0.43988        1.59994
H          0.53250        1.29501        1.83227
H          0.07780       -1.40943        1.92575
H          0.66596       -2.40823       -0.45349
H          2.65114       -0.52678       -0.69054
H          1.51283       -0.33647       -2.04006
H         -2.37880       -1.04526        0.65662
