19
dsC7O2H10nsd_3651.xyz
O         -1.52909        1.89134       -0.33897
C         -1.90095        0.54334       -0.36991
C         -2.15219       -0.09633        0.96741
C         -0.96581       -0.53497        0.14974
O         -1.11323       -1.81845       -0.40917
C          0.43179       -0.17737        0.60984
C          1.47222       -0.28786       -0.52742
C          2.81717        0.07840       -0.10529
C          3.91670        0.38582        0.27033
H         -1.00140        2.07976       -1.12226
H         -2.56372        0.25340       -1.18598
H         -1.96060        0.51699        1.84098
H         -2.97904       -0.79125        1.05143
H         -0.77023       -1.79957       -1.30906
H          0.42912        0.84422        0.99791
H          0.72996       -0.84167        1.42798
H          1.48102       -1.31698       -0.90839
H          1.16769        0.35178       -1.36796
H          4.89222        0.65392        0.59223
