19
dsC7O2H10nsd_2857.xyz
C          2.31104       -1.02658        0.03201
C          0.98525       -0.40312       -0.40713
C         -0.20470       -1.34291       -0.23562
C         -1.57948       -0.78525       -0.54369
O         -1.55131        0.64730       -0.59647
C         -0.89378        0.64665        0.72176
C         -1.12402       -0.86560        0.87997
C          0.59341        0.85946        0.43826
O          0.84378        2.09032       -0.20337
H          2.58428       -1.87843       -0.59965
H          3.11973       -0.29077       -0.02763
H          2.25538       -1.38274        1.06715
H          1.07482       -0.08156       -1.45109
H         -0.07874       -2.41191       -0.37499
H         -2.35661       -1.29608       -1.09968
H         -1.36551        1.35674        1.40175
H         -1.48271       -1.41901        1.73565
H          1.16254        0.87932        1.37567
H          0.22081        2.12760       -0.94177
