19
dsC7O2H10nsd_1813.xyz
C         -2.35123        1.39675        0.06464
C         -1.41324        0.23098        0.04829
C         -1.07595       -0.79714        1.16484
C         -0.46761       -1.28715       -0.16639
O         -1.73280       -0.92125       -0.84018
C          0.05448        0.14158       -0.48540
C          1.24158        0.78570        0.23060
C          2.55532        0.31842       -0.36133
O          3.44554       -0.19791        0.26247
H         -1.98355        2.17081        0.74592
H         -2.44407        1.82954       -0.93608
H         -3.34419        1.08474        0.40176
H         -0.41306       -0.50005        1.97956
H         -1.93013       -1.37943        1.51247
H         -0.03123       -2.25453       -0.41367
H          0.09128        0.31929       -1.56478
H          1.18566        1.87434        0.08122
H          1.26100        0.59076        1.30455
H          2.64632        0.48296       -1.46082
