19
dsC7O2H10nsd_1629.xyz
O         -1.35034        1.52142       -0.61948
C         -1.06777        0.25344       -0.08348
C         -2.05618       -0.34701        0.88979
C         -1.96694       -0.85579       -0.53401
C          0.38594       -0.00399        0.09972
C          1.44697        0.93796        0.70700
C          2.52223        0.22299       -0.18536
C          1.40391       -0.66774       -0.73857
O          0.80997       -1.33987        0.38744
H         -1.28311        2.16500        0.09411
H         -1.67389       -0.97979        1.68272
H         -2.91482        0.26202        1.15081
H         -1.52315       -1.83030       -0.69590
H         -2.75889       -0.57359       -1.21742
H          1.30393        1.98232        0.42069
H          1.56929        0.86254        1.79012
H          2.95461        0.88841       -0.93585
H          3.32044       -0.30884        0.33732
H          1.31959       -1.15941       -1.70084
