19
dsC7O2H10nsd_4298.xyz
C          2.74548       -0.68720       -0.10402
C          1.25911       -0.49715        0.01330
C          0.38074       -1.51115        0.08005
C         -1.11118       -1.34601        0.16868
C         -1.56564        0.02097       -0.35583
O         -2.95620        0.23294       -0.18917
C         -0.71708        1.12502        0.27986
C          0.77756        0.91164        0.05806
O          1.54514        1.84702       -0.05157
H          3.26601       -0.21170        0.73373
H          3.01022       -1.74713       -0.12965
H          3.12591       -0.20457       -1.00991
H          0.75659       -2.53268        0.06522
H         -1.61879       -2.14631       -0.38057
H         -1.43189       -1.45305        1.21843
H         -1.41249        0.04067       -1.44169
H         -3.13929        0.27954        0.75600
H         -0.99171        2.11373       -0.09441
H         -0.89003        1.12517        1.36808
