19
dsC7O2H10nsd_5884.xyz
O          4.72921       -0.35136       -0.15520
C          3.36908       -0.22675       -0.52318
C          2.48177        0.18266        0.67043
C          1.08492        0.35612        0.29291
C         -0.05490        0.49436       -0.07135
C         -1.44777        0.64518       -0.47297
C         -2.41513       -0.17869        0.40966
C         -3.86092        0.07924        0.04941
O         -4.67802       -0.77329       -0.18076
H          4.81497       -1.12132        0.41590
H          3.32939        0.55293       -1.28921
H          2.97688       -1.15002       -0.97347
H          2.56390       -0.58348        1.45440
H          2.88532        1.10764        1.09961
H         -1.73387        1.70494       -0.43157
H         -1.56659        0.34028       -1.52066
H         -2.21128       -1.24918        0.33406
H         -2.27384        0.12201        1.45666
H         -4.13653        1.16075        0.01255
