19
dsC7O2H10nsd_1258.xyz
C          1.72828       -0.96627       -1.10464
C          0.86951       -0.90832        0.15468
O          1.61723       -0.61554        1.32397
C         -0.30552        0.08739        0.02386
C         -1.44398       -0.10832        1.06425
C         -2.30061       -0.50472       -0.15224
O         -1.19364       -0.29799       -1.06095
C          0.18812        1.45603       -0.11025
C          0.62371        2.57447       -0.19593
H          2.51351       -1.71709       -0.98428
H          1.11449       -1.22566       -1.97143
H          2.19969        0.00336       -1.29759
H          0.42277       -1.89252        0.33545
H          2.00475        0.26027        1.20248
H         -1.24138       -0.89304        1.79341
H         -1.75435        0.79941        1.58000
H         -2.65484       -1.54137       -0.17675
H         -3.13799        0.16438       -0.37940
H          0.98751        3.56888       -0.28439
