19
dsC7O2H10nsd_4774.xyz
C         -3.49339       -0.28195        0.10367
C         -2.09857       -0.55812       -0.46164
C         -1.00004        0.26228        0.22320
O         -1.21021        1.66547        0.10842
C          0.37256       -0.10590       -0.30758
O          0.90399       -1.36075        0.10473
C          1.55758       -0.16096        0.56972
C          2.88296        0.09994        0.07807
C          3.99591        0.33101       -0.31233
H         -4.25780       -0.84334       -0.44118
H         -3.55308       -0.57173        1.15836
H         -3.73542        0.78231        0.03909
H         -1.84351       -1.61941       -0.36037
H         -2.07764       -0.33878       -1.54000
H         -1.01721        0.05677        1.30031
H         -1.29577        1.87695       -0.82827
H          0.54433        0.12918       -1.36124
H          1.40485        0.03969        1.62956
H          4.97899        0.53279       -0.66006
