19
dsC7O2H10nsd_0092.xyz
C          4.41798        0.54126        0.11880
C          3.37722       -0.00777       -0.12485
C          2.09809       -0.64746       -0.39954
C          0.93049        0.08218        0.27265
O         -0.25251       -0.61798       -0.05736
C         -1.40738       -0.08075        0.52458
C         -2.68995       -0.82184        0.11949
O         -3.29446        0.39856       -0.35717
C         -2.07093        1.13810       -0.16558
H          5.34524        1.01568        0.32500
H          1.91304       -0.68258       -1.47961
H          2.10762       -1.68697       -0.05119
H          1.07595        0.10759        1.36380
H          0.88648        1.12367       -0.07977
H         -1.27487        0.04440        1.60823
H         -2.51713       -1.54763       -0.68493
H         -3.27414       -1.28797        0.92017
H         -1.59293        1.40768       -1.11703
H         -2.22658        2.03922        0.43829
