19
dsC7O2H10nsd_0140.xyz
C         -0.56345       -0.92602        1.21340
C         -1.14981        0.44647        0.91197
C         -1.42124        0.50170       -0.59370
C         -0.83714       -0.77063       -1.19756
C          0.09225       -1.36477       -0.10894
O          1.44276       -0.91390       -0.24942
C          1.71575        0.37085        0.23875
O          0.93729        1.38162       -0.34367
C         -0.41612        1.43086        0.02286
H          0.13219       -0.95921        2.05667
H         -1.38447       -1.61425        1.44697
H         -1.84940        0.86772        1.62630
H         -2.34084        0.90401       -1.00438
H         -1.64266       -1.48001       -1.41896
H         -0.27682       -0.59580       -2.12023
H          0.16249       -2.45135       -0.19429
H          1.61245        0.41069        1.33317
H          2.75029        0.58022       -0.04178
H         -0.72497        2.46537        0.14056
