19
dsC7O2H10nsd_3955.xyz
O         -2.38382       -0.40044       -0.77016
C         -1.58363        0.15805        0.25605
C         -0.70996        1.32712       -0.36381
C          0.63096        0.68991       -0.04591
C          2.06576        0.50506       -0.53664
O          1.90901       -0.93963       -0.35996
C          0.45418       -0.79685       -0.40128
C         -0.47578       -0.80400        0.82802
C          0.45583        0.25181        1.45770
H         -2.88118       -1.13436       -0.39431
H         -2.21149        0.52243        1.08130
H         -0.92273        1.41155       -1.43185
H         -0.90035        2.28935        0.11846
H          2.22965        0.75423       -1.59360
H          2.88021        0.90670        0.07495
H          0.05390       -1.14182       -1.35707
H         -0.84491       -1.68753        1.35617
H          0.00626        0.98089        2.13775
H          1.36503       -0.16742        1.88436
