19
dsC7O2H10nsd_5749.xyz
C          2.90241       -0.13045       -0.22941
O          1.71817        0.62369       -0.03642
C          0.69124       -0.08644        0.56463
O          0.23122       -1.15023       -0.28984
C         -1.17692       -1.15980       -0.21543
C         -1.96168        0.05253       -0.67762
C         -1.05536        1.28263       -0.63243
C         -0.53884        0.79810        0.76177
C         -1.70564       -0.22340        0.81379
H          2.73930       -0.95580       -0.93139
H          3.65152        0.55202       -0.63637
H          3.27171       -0.54177        0.72218
H          1.04760       -0.53707        1.50978
H         -1.60725       -2.14317       -0.36145
H         -2.88586       -0.04889       -1.23608
H         -0.30447        1.39895       -1.41730
H         -1.63575        2.20282       -0.53646
H         -0.43285        1.54077        1.55001
H         -2.37033       -0.45452        1.63532
