19
dsC7O2H10nsd_5676.xyz
O         -2.78471       -1.17837        0.04778
C         -2.05265       -0.18751       -0.65666
C         -1.19331        0.56603        0.36132
C         -0.10051       -0.32550        1.02179
C          1.28245        0.22156        0.55379
C          1.98889       -0.73296       -0.39658
O          3.14847       -1.04517       -0.33262
C          0.91914        1.50134       -0.17282
C         -0.39635        1.67877       -0.27379
H         -3.28141       -1.69950       -0.58965
H         -1.40232       -0.63766       -1.42458
H         -2.72558        0.51888       -1.16896
H         -1.88533        0.95746        1.11807
H         -0.16243       -0.27441        2.11056
H         -0.24503       -1.37648        0.75393
H          1.97154        0.40448        1.38486
H          1.32629       -1.12978       -1.20334
H          1.67821        2.16930       -0.56445
H         -0.86989        2.52570       -0.75999
