19
dsC7O2H10nsd_4739.xyz
C         -1.99427        1.59265       -0.00188
O         -0.68128        1.07687       -0.00259
C         -0.52743       -0.33534        0.00052
C         -1.09766       -0.98511        1.27385
C         -1.10212       -0.99131       -1.26750
C          0.99795       -0.58219       -0.00110
O          1.44351       -1.70992       -0.00223
C          1.87714        0.57003       -0.00052
C          2.67536        1.47106        0.00004
H         -2.56192        1.29936        0.89170
H         -1.89461        2.68073       -0.00501
H         -2.56474        1.29449       -0.89203
H         -0.74465       -0.45475        2.16322
H         -2.19081       -0.97111        1.26860
H         -0.76696       -2.02428        1.33044
H         -0.77055       -2.03036       -1.32071
H         -2.19526       -0.97833       -1.25800
H         -0.75310       -0.46460       -2.16061
H          3.37097        2.27460        0.00049
