19
dsC7O2H10nsd_3135.xyz
C         -2.52718       -0.54226        0.20823
C         -1.07588       -0.34580       -0.09937
C         -0.37557        0.79397       -0.21352
C         -0.82355        2.20503       -0.01049
C          1.10560        0.52458       -0.49997
O          1.96084        1.07123        0.49382
C          1.18223       -1.00119       -0.55861
O          0.89901       -1.58890        0.71996
C         -0.15589       -1.51830       -0.28349
H         -3.02097       -1.12936       -0.57655
H         -2.65882       -1.09921        1.14460
H         -3.06232        0.40548        0.29979
H         -0.73945        2.78195       -0.94105
H         -1.85609        2.27557        0.33886
H         -0.17227        2.69762        0.72005
H          1.42280        0.97898       -1.44671
H          1.81171        0.52907        1.28049
H          1.93125       -1.51076       -1.15737
H         -0.51307       -2.48417       -0.62908
