19
dsC7O2H10nsd_4360.xyz
C         -1.37265       -1.42958        1.06672
C         -1.04135       -0.77182       -0.28752
C          0.23872       -1.33046       -0.90664
O          1.41485       -0.92584       -0.19434
C          1.55304        0.39864        0.10067
O          2.61913        0.81203        0.47819
C          0.34320        1.23870       -0.01403
C         -0.88781        0.72986       -0.15942
C         -2.12641        1.57476       -0.17324
H         -1.56940       -2.49816        0.93418
H         -0.53628       -1.31915        1.76218
H         -2.25830       -0.98054        1.52499
H         -1.86164       -0.98443       -0.98589
H          0.25083       -2.42323       -0.88668
H          0.32536       -1.00193       -1.95056
H          0.51982        2.30108        0.11253
H         -2.65520        1.46933       -1.12893
H         -2.82886        1.25526        0.60617
H         -1.89864        2.63174       -0.01807
