19
dsC7O2H10nsd_3679.xyz
C         -2.84610        0.32681       -0.38400
C         -1.59039       -0.48599       -0.20005
O         -0.98696       -0.47908        1.09917
C         -0.25183        0.08490       -0.00069
C          0.12549        1.52087        0.08040
C          1.45229        1.66350        0.04562
C          2.17018        0.33909       -0.07047
C          1.02812       -0.63131       -0.46693
O          1.09279       -1.92803        0.08068
H         -3.05930        0.47015       -1.44900
H         -3.70195       -0.19121        0.06152
H         -2.76098        1.30685        0.09133
H         -1.61571       -1.48169       -0.64999
H         -0.59606        2.31826        0.20325
H          1.97826        2.60938        0.11324
H          2.98561        0.35444       -0.80238
H          2.60195        0.03619        0.89250
H          0.98522       -0.67438       -1.56744
H          1.80970       -2.39845       -0.35517
