19
dsC7O2H10nsd_1525.xyz
C          2.13332        1.03554       -0.66584
C          1.32936       -0.06936       -0.02967
O          1.64564       -1.32143       -0.56463
C          0.94577       -0.00389        1.43996
C         -0.12422        0.10745        0.37270
O         -0.92709       -1.04882        0.16252
C         -2.22077       -0.65043       -0.30839
C         -2.18881        0.85315       -0.29761
C         -0.98878        1.27074        0.09766
H          1.93648        1.08740       -1.74128
H          1.90330        2.00733       -0.22047
H          3.20262        0.84446       -0.52573
H          0.81144       -1.80923       -0.62103
H          0.96884       -0.93845        1.99039
H          1.19197        0.88313        2.01579
H         -2.39739       -1.06314       -1.31367
H         -2.98979       -1.06922        0.35726
H         -3.03337        1.46613       -0.58312
H         -0.65775        2.29439        0.20589
