19
dsC7O2H10nsd_4502.xyz
C          2.55123       -0.74119       -0.01189
C          1.14574       -0.33933       -0.46885
C          0.98103        1.20404       -0.50129
C         -0.48664        1.68269       -0.38250
C         -1.24875        0.70436        0.53433
O         -0.31257        0.08541        1.46898
C          0.04573       -0.90839        0.46091
C         -1.32415       -0.65283       -0.17608
O         -2.10192       -1.24680       -0.85794
H          3.31647       -0.28201       -0.64635
H          2.72844       -0.41520        1.01878
H          2.68758       -1.82666       -0.05366
H          0.97132       -0.75282       -1.47130
H          1.53294        1.60788        0.35180
H          1.44811        1.61398       -1.40150
H         -0.51508        2.69655        0.02827
H         -0.98711        1.71883       -1.35748
H         -2.13156        1.12023        1.02440
H          0.27969       -1.88574        0.89098
