19
dsC7O2H10nsd_1343.xyz
C         -1.14771        1.94292       -0.02589
C         -1.16049        0.42025       -0.24213
C         -2.41558       -0.17935        0.37242
O         -3.26067       -0.78342       -0.23345
C          0.05691       -0.24596        0.38274
C          0.55923       -1.56310       -0.10103
C          1.35812       -0.30295       -0.41255
C          2.62856       -0.07673        0.31120
O          3.59290        0.48562       -0.14326
H         -0.22833        2.37645       -0.42926
H         -1.99934        2.41934       -0.51978
H         -1.19345        2.18984        1.04086
H         -1.19277        0.19030       -1.31237
H         -2.50296       -0.01441        1.47354
H          0.17729       -0.05078        1.44709
H          0.97691       -2.25629        0.62165
H          0.05765       -2.03344       -0.93935
H          1.34179        0.06957       -1.43114
H          2.63113       -0.47854        1.35387
