19
dsC7O2H10nsd_0395.xyz
C         -1.76627       -1.06652        0.76221
C         -1.76621       -1.06662       -0.76221
C         -1.00234       -0.03490       -0.00003
O         -1.39844        1.33756       -0.00012
C         -0.01716        1.76110        0.00013
C          0.48373        0.30672        0.00005
C          1.48592       -0.23504       -1.03426
O          2.36497       -0.72035       -0.00005
C          1.48591       -0.23523        1.03425
H         -2.66808       -0.73213        1.26361
H         -1.22137       -1.85088        1.27794
H         -1.22126       -1.85103       -1.27779
H         -2.66798       -0.73229       -1.26372
H          0.23268        2.34424       -0.89490
H          0.23242        2.34401        0.89537
H          1.11362       -1.04414       -1.67556
H          1.96631        0.52609       -1.66349
H          1.11361       -1.04444        1.67540
H          1.96630        0.52578        1.66362
