19
dsC7O2H10nsd_0022.xyz
C          2.88861        0.49620        0.17286
C          1.53874       -0.13809        0.04917
C          1.24245       -1.46438        0.07679
O         -0.09398       -1.66962       -0.05921
C         -0.67380       -0.43797       -0.18773
C         -2.16010       -0.41696       -0.34952
O         -2.80702        0.51008        0.51746
C          0.27649        0.54025       -0.12461
C          0.06261        2.01968       -0.22843
H          2.93814        1.17563        1.03208
H          3.67003       -0.25796        0.30070
H          3.13926        1.08865       -0.71490
H          1.84636       -2.35101        0.18554
H         -2.44634       -0.10162       -1.35941
H         -2.53373       -1.44207       -0.21053
H         -2.48721        0.33668        1.40942
H          0.56356        2.55273        0.58819
H          0.46930        2.42233       -1.16440
H         -1.00137        2.26055       -0.18384
