19
dsC7O2H10nsd_5969.xyz
C          3.50320        0.09511        0.07148
C          2.05169        0.16545       -0.40637
C          1.06243       -0.40847        0.62266
C         -0.35272       -0.32689        0.15247
O         -0.81550       -1.25193       -0.86851
C         -1.57109       -1.16406        0.33505
C         -2.54257        0.00678        0.13687
C         -1.26586        0.89104       -0.02448
O         -1.07403        2.06912       -0.08073
H          4.18578        0.50788       -0.67731
H          3.64418        0.66192        0.99859
H          3.80798       -0.93932        0.26610
H          1.77608        1.20484       -0.61817
H          1.93942       -0.38542       -1.34733
H          1.30383       -1.45626        0.83801
H          1.15007        0.14407        1.56700
H         -1.68472       -2.05771        0.93656
H         -3.21121       -0.07810       -0.72166
H         -3.10563        0.30689        1.02605
