19
dsC7O2H10nsd_2115.xyz
C          2.09289       -1.31516       -0.29678
C          0.95651       -0.35713       -0.00478
C         -0.12298       -0.80379        1.04712
C         -1.19535       -0.30604        0.08237
O         -2.48175       -0.80303       -0.02061
C         -0.79143        1.05492       -0.45631
O          0.13947        1.83669        0.26336
C          1.36230        1.09214        0.29124
C         -0.18497       -0.17298       -1.05307
H          2.70195       -0.96429       -1.13773
H          2.75183       -1.42037        0.57265
H          1.71396       -2.31024       -0.54899
H         -0.15678       -1.89281        1.13905
H         -0.07217       -0.34886        2.04306
H         -3.04071       -0.32669        0.60381
H         -1.53869        1.63166       -0.98885
H          2.05893        1.47374       -0.47162
H          1.81984        1.21577        1.27894
H         -0.20166       -0.47897       -2.09095
