19
dsC7O2H10nsd_4686.xyz
O         -2.34189       -1.34696       -0.26178
C         -2.34214        0.01754        0.11016
C         -0.99633        0.74560       -0.03365
O         -0.93983        1.93536        0.18204
C          0.20445       -0.08726       -0.40872
C          0.71713       -0.98586        0.78275
C          2.04640       -0.22632        0.74295
C          2.66663       -0.31323       -0.62267
C          1.54081        0.65563       -0.40213
H         -2.37158       -1.40152       -1.22140
H         -3.09990        0.60738       -0.42405
H         -2.61318        0.05374        1.17166
H         -0.02181       -0.65137       -1.32198
H          0.15143       -0.81071        1.70095
H          0.75144       -2.06272        0.59521
H          2.62178        0.06128        1.61409
H          3.65072        0.13514       -0.71437
H          2.52324       -1.19919       -1.23885
H          1.63999        1.72417       -0.53558
