19
dsC7O2H10nsd_3118.xyz
C         -2.07830       -1.07317        0.66217
C         -0.99995       -0.81973       -0.38480
C          0.37683       -1.45127       -0.08467
O          1.29347       -0.95964       -1.07197
C          1.03226       -0.13756        0.08226
C          2.16703        0.35868        0.91261
C         -0.29114        0.55575       -0.23169
C         -0.56393        1.87690       -0.78766
O         -0.81837        1.57507        0.59864
H         -2.42958       -2.10882        0.61302
H         -1.70321       -0.88523        1.67300
H         -2.93578       -0.41342        0.50377
H         -1.36031       -1.04274       -1.39354
H          0.59727       -2.40970        0.37323
H          2.86284       -0.45370        1.13749
H          2.71997        1.14479        0.38617
H          1.79217        0.78056        1.84965
H          0.25268        2.57388       -0.96963
H         -1.45361        2.03334       -1.39579
