19
dsC7O2H10nsd_3767.xyz
C          2.84767        0.72850        0.21829
C          1.62825       -0.13748        0.43323
C          1.36358       -1.34445       -0.43299
C          0.49322       -0.12011       -0.56317
C         -0.92185       -0.13411       -0.08316
C         -1.84366       -1.26187       -0.36438
O         -1.27400       -1.09669        0.92515
C         -1.58577        1.19459        0.13668
O         -1.15458        2.24379       -0.26521
H          3.72067        0.31945        0.73873
H          3.09806        0.79734       -0.84577
H          2.68192        1.74653        0.58642
H          1.32252       -0.25307        1.46982
H          2.05320       -1.55899       -1.24276
H          0.93500       -2.21776        0.04616
H          0.63646        0.50792       -1.43678
H         -2.91884       -1.09739       -0.42493
H         -1.45470       -2.09092       -0.95212
H         -2.53424        1.11972        0.71473
