19
dsC7O2H10nsd_5560.xyz
C          2.97368       -0.49050        0.04136
C          1.77464        0.38154        0.42554
C          0.49738        0.05960       -0.37375
C         -0.18497       -1.23875        0.00439
O         -1.34889       -1.51161       -0.78631
C         -1.53992       -0.98317        0.53115
C         -1.82728        0.49760        0.53108
C         -0.59008        1.13150       -0.13065
O         -0.46327        2.29994       -0.38383
H          3.85891       -0.21031        0.62028
H          2.78449       -1.55352        0.22364
H          3.21757       -0.37528       -1.02016
H          1.56900        0.28091        1.49944
H          2.01120        1.43659        0.25356
H          0.73737        0.06757       -1.44414
H          0.39460       -2.11097        0.29479
H         -2.02865       -1.64947        1.23686
H         -2.73201        0.76221       -0.02402
H         -1.93591        0.89883        1.54615
