19
dsC7O2H10nsd_2329.xyz
C          1.39855       -1.35306       -1.02642
C          0.84769       -0.44255        0.04747
C          1.68129        0.82851        0.38836
O          0.61781        1.72107       -0.06136
C         -0.25612        0.62491       -0.18576
C         -1.46038        0.42635       -1.08039
O         -2.02760       -0.45941       -0.07369
C         -1.09034       -0.02464        0.95097
C          0.03040       -1.05290        1.23075
H          1.76562       -0.78231       -1.88656
H          2.23405       -1.95113       -0.64278
H          0.63126       -2.04889       -1.38164
H          1.91230        0.97855        1.44967
H          2.58853        0.96996       -0.20821
H         -2.07457        1.32668       -1.22027
H         -1.31519       -0.07426       -2.04447
H         -1.58408        0.50099        1.77276
H          0.50048       -0.96513        2.21527
H         -0.28660       -2.08743        1.07682
