19
dsC7O2H10nsd_4236.xyz
O         -2.20526        0.20801       -0.48849
C         -1.14425        0.66599        0.33142
C         -0.65205       -0.43600        1.31353
C          0.49185       -1.16195        0.61733
O          0.07703       -1.39038       -0.77840
C          0.75804       -0.16567       -1.11801
C          1.62404       -0.17674        0.15262
C          1.30940        1.31055        0.39759
C          0.05978        1.11912       -0.51527
H         -1.86712       -0.59194       -0.91357
H         -1.54525        1.51881        0.88864
H         -0.31374       -0.01561        2.26692
H         -1.48249       -1.11516        1.52660
H          0.80354       -2.09409        1.09339
H          1.11170       -0.13479       -2.14945
H          2.64100       -0.56523        0.20041
H          1.14285        1.66212        1.42005
H          2.06863        1.94372       -0.06959
H         -0.21420        1.91935       -1.20350
