19
dsC7O2H10nsd_1506.xyz
C         -1.85457       -0.47231       -1.25545
C         -1.05371       -0.09660        0.00028
C         -1.83289       -0.45939        1.27355
O          0.11394       -0.96267       -0.00741
C          1.40438       -0.56664       -0.00174
O          2.26927       -1.40073       -0.00406
C          1.72132        0.92004        0.00605
C          0.53455        1.82941       -0.00787
C         -0.70686        1.36393       -0.01019
H         -2.07999       -1.54203       -1.24842
H         -2.79613        0.08393       -1.28957
H         -1.28228       -0.24079       -2.15739
H         -1.24418       -0.22105        2.16309
H         -2.77238        0.09947        1.31963
H         -2.06085       -1.52862        1.28007
H          2.35369        1.10253        0.88447
H          2.37783        1.10584       -0.85348
H          0.72399        2.89925       -0.01532
H         -1.55864        2.03809       -0.01912
