19
dsC7O2H10nsd_4205.xyz
O         -1.53718        1.55499       -0.47445
C         -0.25504        0.97923       -0.47775
C          0.55954        1.17031        0.82864
C          1.58478        0.04990        0.82919
C          2.35091       -0.19903       -0.44776
C          1.11855       -1.01717       -0.14411
C         -0.21164       -0.55750       -0.74582
C         -1.31541       -1.33524       -0.06297
O         -2.14029       -0.88010        0.69602
H         -2.06190        1.04588        0.15919
H          0.27154        1.47259       -1.30086
H          0.99695        2.17193        0.88319
H         -0.11385        1.05588        1.68592
H          2.05380       -0.22634        1.76678
H          2.32481        0.53868       -1.24301
H          3.30149       -0.71411       -0.36121
H          1.24723       -2.07348        0.06922
H         -0.27722       -0.78752       -1.81852
H         -1.31316       -2.42561       -0.28978
