19
dsC7O2H10nsd_4689.xyz
C          2.43856        1.00950       -0.19417
C          2.12844       -0.37000        0.41933
C          0.75406       -0.88160        0.01694
O          0.60584       -1.70538       -0.85742
C         -0.45546       -0.28231        0.73945
C         -1.79848       -1.02213        0.48333
C         -2.27789        0.11501       -0.46819
C         -1.07360        0.93867       -0.01747
O         -0.75320        2.08606       -0.11191
H          1.70919        1.76363        0.11122
H          3.43247        1.34100        0.11872
H          2.42835        0.95395       -1.28677
H          2.85920       -1.10781        0.07761
H          2.18628       -0.30684        1.51226
H         -0.19938       -0.04157        1.77459
H         -1.67152       -1.99432        0.00935
H         -2.40662       -1.11633        1.38393
H         -2.19781       -0.15206       -1.52735
H         -3.25498        0.57213       -0.29422
