19
dsC7O2H10nsd_3053.xyz
C          2.32526       -1.00907       -0.49644
C          1.02696       -0.24490       -0.67299
C          0.93488        1.21754       -0.19956
O          1.01671        0.73916        1.22900
C          0.03804       -0.12755        0.53210
C         -1.09229       -1.04975        0.89242
O         -2.02494       -0.77138       -0.17413
C         -1.71070        0.45798       -0.90450
C         -0.62000        1.11019       -0.07284
H          3.04245       -0.73783       -1.27872
H          2.77166       -0.79301        0.47578
H          2.15324       -2.08813       -0.57253
H          0.55955       -0.44988       -1.63911
H          1.55415        2.08300       -0.43944
H         -0.85309       -2.11696        0.85838
H         -1.52329       -0.80400        1.87252
H         -1.42220        0.19310       -1.92707
H         -2.62405        1.05805       -0.94952
H         -1.00549        1.78685        0.69157
