19
dsC7O2H10nsd_1619.xyz
C         -1.07966        1.19632        1.24998
C         -0.83016        0.18093        0.14794
C         -1.92954       -0.79259       -0.20361
C         -1.57551        0.32254       -1.15722
C          0.58765       -0.31789        0.07477
C          1.03066       -1.49144        0.86489
O          0.82068       -1.60366       -0.53269
C          1.67826        0.64719       -0.30049
O          1.55149        1.84068       -0.38821
H         -0.85707        0.77248        2.23658
H         -0.46226        2.08647        1.10976
H         -2.12976        1.50353        1.25111
H         -1.64604       -1.79851       -0.48914
H         -2.85513       -0.71759        0.35685
H         -1.05901        0.05031       -2.07129
H         -2.25666        1.16010       -1.25948
H          2.06570       -1.58254        1.19230
H          0.28777       -1.97763        1.49461
H          2.64489        0.13689       -0.51171
