19
dsC7O2H10nsd_5722.xyz
O          3.53988       -1.10295        0.22014
C          2.98593        0.19473        0.07028
C          1.57934        0.15097       -0.48715
O          0.80913        1.34719       -0.33961
C          0.39422        0.17048        0.37628
C         -0.92808       -0.42616       -0.03375
C         -2.11368        0.44973        0.42810
C         -3.40724       -0.10770        0.05600
C         -4.46003       -0.59164       -0.26369
H          3.72908       -1.45068       -0.65689
H          2.96528        0.64604        1.06679
H          3.61446        0.83621       -0.56612
H          1.48405       -0.32485       -1.46723
H          0.56527        0.23669        1.45331
H         -0.96220       -0.53444       -1.12220
H         -1.02313       -1.42923        0.39765
H         -2.07039        0.57924        1.51763
H         -1.99952        1.45086       -0.00463
H         -5.39779       -1.00626       -0.53900
