19
dsC7O2H10nsd_1518.xyz
C          2.18871        1.16909       -0.21767
C          1.33631       -0.05970        0.00910
C          1.94443       -1.36982       -0.44328
O          0.68245       -0.11541        1.29888
C         -0.12075        0.07621        0.15279
C         -1.02169        1.30839       -0.13771
C         -2.08271        0.30805       -0.62594
O         -2.39480       -0.53873        0.47902
C         -1.23103       -0.85458       -0.30415
H          2.38638        1.31392       -1.28562
H          1.70034        2.06416        0.17285
H          3.15419        1.05873        0.28798
H          2.90260       -1.53529        0.06134
H          1.28930       -2.21073       -0.20672
H          2.13303       -1.36164       -1.52236
H         -1.32024        1.90044        0.72975
H         -0.61847        1.95827       -0.91890
H         -2.82749        0.42583       -1.40323
H         -1.18053       -1.84638       -0.73718
