19
dsC7O2H10nsd_2040.xyz
C         -1.02117        1.54033        0.89366
C         -0.52174        0.46602       -0.07906
C          0.30417        1.08511       -1.27349
C          1.56964        0.42703       -0.70738
C          1.38007       -1.07303       -0.67970
C          0.76188       -0.23402        0.40013
O          1.09915       -0.36740        1.73349
C         -1.67962       -0.42881       -0.45034
O         -1.79162       -1.58182       -0.11452
H         -1.37955        1.09052        1.82404
H         -0.20782        2.22645        1.14683
H         -1.83714        2.12134        0.45006
H          0.01894        0.76088       -2.28007
H          0.30978        2.17670       -1.24259
H          2.55031        0.88308       -0.66553
H          0.77968       -1.57822       -1.43182
H          2.25048       -1.62858       -0.34531
H          0.76488       -1.21969        2.03621
H         -2.46912        0.06550       -1.06651
