19
dsC7O2H10nsd_3669.xyz
O          2.71775       -0.62600       -0.54034
C          1.94497        0.05805        0.40912
C          1.43682        1.42156       -0.02120
C          0.49404        0.27292        0.16402
C         -0.48278       -0.42832       -0.79224
C         -0.82991       -1.37900        0.39816
C         -0.76524        0.05233        1.02421
C         -1.55913        0.55595       -0.20969
O         -2.91742        0.19890       -0.23519
H          2.49931       -1.56175       -0.47868
H          2.29274       -0.03950        1.43898
H          1.45602        2.22750        0.70583
H          1.68641        1.71588       -1.03588
H         -0.31020       -0.69163       -1.83659
H         -1.81259       -1.84779        0.37172
H         -0.04746       -2.07586        0.70852
H         -0.91966        0.33571        2.06580
H         -1.41102        1.61197       -0.46703
H         -3.26887        0.42131       -1.10275
