19
dsC7O2H10nsd_3375.xyz
O          1.15602        1.96897        0.09652
C          0.22954        0.97788        0.43939
C         -1.02564        0.78857       -0.48437
C         -2.30782        0.35900        0.26548
C         -1.83830       -1.12773        0.21790
C         -0.62992       -0.72762       -0.68287
C          0.66908       -0.45219        0.05634
C          1.73597       -1.29486        0.59167
O          1.91755       -0.55644       -0.63305
H          1.83586        1.52891       -0.43391
H         -0.04585        1.10643        1.49434
H         -1.09196        1.50854       -1.29955
H         -2.45376        0.79959        1.25675
H         -3.21624        0.52633       -0.31824
H         -1.55720       -1.56047        1.18255
H         -2.54297       -1.80852       -0.26371
H         -0.53574       -1.22031       -1.65091
H          2.32852       -0.94302        1.43495
H          1.69346       -2.37596        0.46869
