19
dsC7O2H10nsd_3034.xyz
O          1.52253        1.84131       -0.14558
C          1.33593        0.51608       -0.54799
C          1.79952       -0.68910        0.32537
C          0.84699       -1.55482       -0.54400
C          0.02261       -0.27518       -0.20148
C          0.57342       -0.42105        1.25207
C         -1.36797        0.03957       -0.62482
C         -2.28188        0.83936        0.20187
O         -2.42770       -0.57794        0.11912
H          1.35736        1.91512        0.79973
H          1.63522        0.47883       -1.59908
H          2.81618       -0.93427        0.63273
H          1.12459       -1.69841       -1.59238
H          0.49011       -2.48072       -0.08976
H          0.59254        0.47174        1.88602
H          0.19723       -1.27246        1.82280
H         -1.53175        0.04376       -1.70430
H         -1.94390        1.21761        1.16536
H         -3.06804        1.42258       -0.27561
