19
dsC7O2H10nsd_2124.xyz
O          2.49520        0.88369       -0.07520
C          1.32605        0.15657       -0.00208
C          0.58080       -0.35364        1.25485
C         -0.27417       -0.75919       -0.00047
C          1.01937       -1.27132       -0.66852
O         -1.62204       -1.05866        0.00822
C         -2.30028        0.23075        0.02678
C         -1.22521        1.38235       -0.04295
C         -0.02850        0.61884       -0.61544
H          3.17940        0.41361        0.41397
H          1.04994       -1.17350        1.80518
H          0.16765        0.39489        1.93135
H          1.52207       -2.13094       -0.21758
H          1.03282       -1.30603       -1.76005
H         -2.97485        0.25668       -0.83600
H         -2.90463        0.29495        0.93744
H         -1.56501        2.19390       -0.68986
H         -1.04992        1.80486        0.94801
H         -0.03113        0.62510       -1.70966
