19
dsC7O2H10nsd_6084.xyz
C         -4.10301        0.21103        0.19434
O         -2.93264       -0.45979       -0.20734
C         -1.75824        0.14740        0.28075
C         -0.56173       -0.64695       -0.23531
C          0.74275       -0.08551        0.26976
O          1.19871        1.12986       -0.32701
C          1.96419       -0.06508       -0.56243
C          3.27975       -0.13531        0.01448
C          4.38614       -0.20961        0.47814
H         -4.12190        1.25189       -0.16566
H         -4.95201       -0.32659       -0.23471
H         -4.20980        0.22690        1.29085
H         -1.68792        1.19393       -0.05832
H         -1.76167        0.16361        1.38521
H         -0.66014       -1.69010        0.08786
H         -0.57274       -0.63760       -1.32984
H          0.89301       -0.12098        1.35012
H          1.88301       -0.44562       -1.58036
H          5.36261       -0.27183        0.89132
