19
dsC7O2H10nsd_5932.xyz
C          2.89788       -0.93018       -0.04733
O          1.71242       -0.33242        0.42130
C          0.90760        0.18171       -0.61637
C         -0.35719        0.74029       -0.00834
C         -1.13565       -0.20704        0.90190
C         -1.69773       -1.34491        0.18345
C         -2.15526       -2.27251       -0.42894
C         -1.05604        1.83785       -0.68496
O         -0.26558        2.08021        0.48278
H          3.53554       -0.20754       -0.58027
H          3.44075       -1.30449        0.82363
H          2.68904       -1.77149       -0.72686
H          1.43128        0.98217       -1.16192
H          0.65024       -0.61343       -1.33585
H         -0.45755       -0.55980        1.68655
H         -1.93015        0.36546        1.39243
H         -2.56489       -3.09679       -0.95816
H         -0.65819        2.24951       -1.61166
H         -2.13244        1.94272       -0.55703
