19
dsC7O2H10nsd_2954.xyz
C          1.97292       -1.46409       -0.19601
C          0.53944       -1.04469        0.10462
C          0.26692        0.09877        1.13943
C         -1.26982        0.04269        1.24225
C         -1.57367       -0.07214       -0.27527
O         -2.64105       -0.17220       -0.81551
C         -0.17585       -0.03366       -0.87923
C          0.42503        1.12933       -0.02583
O          1.72558        1.47744       -0.43381
H          2.61784       -0.61439       -0.41173
H          2.38531       -2.01055        0.66053
H          1.99486       -2.14294       -1.05560
H         -0.05059       -1.94905        0.29761
H          0.83855        0.19044        2.06455
H         -1.64646       -0.82503        1.79171
H         -1.73091        0.94153        1.66479
H         -0.08956       -0.07313       -1.96286
H         -0.19907        2.03181        0.05755
H          2.09401        2.07206        0.22824
