19
dsC7O2H10nsd_3701.xyz
O         -2.27744        1.38178        0.09127
C         -1.99524        0.07281        0.47113
C         -1.94619       -1.02547       -0.58887
C         -0.68893       -0.49379        0.02162
C          0.47737       -1.11942        0.77561
C          1.30104       -0.07746        0.02276
C          2.65281       -0.15461       -0.59389
C          2.35533        0.85794        0.50848
O          0.16397        0.39259       -0.72527
H         -1.45148        1.74097       -0.26439
H         -2.38028       -0.18281        1.45585
H         -2.27138       -2.02557       -0.31855
H         -2.15647       -0.72487       -1.61030
H          0.45183       -1.01979        1.86292
H          0.69615       -2.15479        0.50281
H          3.28047       -1.00951       -0.36374
H          2.75557        0.22698       -1.60400
H          2.77860        0.69575        1.49457
H          2.26763        1.89875        0.21581
