19
dsC7O2H10nsd_2774.xyz
C         -2.54178       -1.09955       -0.38378
C         -1.59806        0.04004       -0.02414
C         -0.69452       -0.23209        1.22395
C          0.55691       -0.18144        0.34218
C          1.72311       -1.06930        0.39000
O          2.61661       -1.07937       -0.42943
C          0.61291        1.12945       -0.43615
O          0.13418        2.31534        0.11607
C         -0.34587        0.12202       -0.91383
H         -3.02555       -0.92216       -1.35052
H         -2.00528       -2.05317       -0.44952
H         -3.32827       -1.20704        0.37056
H         -2.14494        0.98535        0.02748
H         -0.73975        0.51092        2.02442
H         -0.86867       -1.22519        1.64770
H          1.73638       -1.76887        1.25799
H          1.52453        1.21205       -1.02643
H          0.81036        2.66743        0.70466
H         -0.24137       -0.34182       -1.88876
