19
dsC7O2H10nsd_0146.xyz
C         -1.15914       -0.84544       -1.00103
C         -1.82601        0.31491       -0.25975
C         -0.78061        1.25094        0.25414
O          0.39274        1.49436       -0.46816
C          1.58251        0.96542        0.10240
C          1.80755       -0.49727       -0.27540
O          0.97647       -1.43140        0.38892
C         -0.41578       -1.22317        0.33106
C         -1.02278       -0.00397        1.03200
H         -1.84670       -1.62887       -1.32294
H         -0.53678       -0.54539       -1.84626
H         -2.86436        0.60709       -0.35277
H         -1.17189        2.14854        0.73186
H          2.40712        1.56052       -0.30697
H          1.58183        1.08048        1.19449
H          1.70878       -0.58979       -1.36761
H          2.83156       -0.78275       -0.00850
H         -0.84356       -2.14063        0.74180
H         -1.33411        0.01849        2.07031
