19
dsC7O2H10nsd_5604.xyz
C         -3.17356        0.41428       -0.25127
O         -2.23240       -0.59057        0.07366
C         -0.94073       -0.27056       -0.31286
C          0.17447       -0.88905        0.46701
O          1.29692       -1.29356       -0.26131
C          2.45272       -0.47769       -0.10363
C          2.16727        0.99788       -0.23059
C          0.97321        1.49170        0.09477
C         -0.08134        0.59329        0.61673
H         -3.22236        0.58560       -1.33688
H         -4.14853        0.06663        0.09750
H         -2.93271        1.36841        0.23932
H         -0.77397       -0.15246       -1.38452
H         -0.09792       -1.54942        1.28828
H          2.94166       -0.68426        0.86416
H          3.14557       -0.80486       -0.88548
H          2.97120        1.63407       -0.58837
H          0.75281        2.55111       -0.00409
H         -0.58406        0.89917        1.53043
