19
dsC7O2H10nsd_3965.xyz
O         -1.74149       -1.25174       -0.94277
C         -1.85989       -0.41604        0.18076
C         -1.84617        1.12897       -0.16408
C         -0.37211        1.05566        0.16046
C          0.85722        1.22855       -0.31537
C          1.78992        0.17040        0.28273
O          2.77188       -0.30138       -0.62560
C          0.80139       -0.93772        0.78395
C         -0.52093       -0.18646        0.99640
H         -1.03516       -0.90108       -1.49931
H         -2.72069       -0.78356        0.74337
H         -2.15315        1.41611       -1.17310
H         -2.42530        1.70247        0.56686
H          1.20441        1.94365       -1.05250
H          2.37837        0.57321        1.11693
H          2.31078       -0.64225       -1.40055
H          0.68243       -1.67775       -0.01886
H          1.17177       -1.46751        1.66467
H         -0.75320        0.00150        2.05033
