19
dsC7O2H10nsd_0523.xyz
C          1.88510       -0.33927       -0.66327
O          1.83743        0.64701        0.42645
C          0.39556        0.50189        0.42548
C         -0.74930        1.50646        0.41452
C         -1.77350        0.60923       -0.42365
C         -0.96517       -0.69121       -0.82562
O         -0.84530       -1.51484        0.33001
C         -0.07112       -0.73149        1.25621
C          0.40019       -0.03217       -0.99587
H          2.62277       -0.05756       -1.41774
H          2.09524       -1.34588       -0.28756
H         -1.14606        1.77387        1.39750
H         -0.48902        2.42185       -0.12229
H         -2.64390        0.31797        0.16814
H         -2.12910        1.14556       -1.30715
H         -1.42093       -1.27676       -1.62409
H         -0.69039       -0.43768        2.11290
H          0.77261       -1.32304        1.62324
H          0.36118        0.78370       -1.72144
