19
dsC7O2H10nsd_5216.xyz
C         -2.64342        0.50616        0.05103
C         -1.69107       -0.43972       -0.69169
C         -0.32631       -0.48996       -0.08286
O         -0.16431       -0.89652        1.31562
C          1.20686       -0.65343        0.89971
C          1.00076       -1.17517       -0.54869
O          1.53181        0.01911       -1.18610
C          0.84944        0.56607       -0.01396
C          0.86685        2.03565        0.24237
H         -3.64216        0.47786       -0.39352
H         -2.72720        0.22043        1.10294
H         -2.28728        1.54031        0.01095
H         -2.10343       -1.45613       -0.70262
H         -1.57332       -0.13400       -1.73850
H          2.01366       -0.80742        1.61597
H          1.19003       -2.14796       -1.00166
H          0.32000        2.25217        1.16500
H          1.89449        2.39582        0.35160
H          0.39653        2.58065       -0.58181
