19
dsC7O2H10nsd_3158.xyz
O         -2.13029       -1.27791       -0.43329
C         -1.30486       -0.44300        0.37121
C         -1.12048        0.93037       -0.29283
C         -0.32426        2.02190        0.37427
C          0.34866        1.11420       -0.62344
C          1.09874       -0.12393       -0.13743
O          2.07097       -0.64040       -0.99601
C          1.18388       -0.39498        1.34142
C          0.09683       -1.04880        0.50430
H         -1.68767       -1.38184       -1.28377
H         -1.82996       -0.37685        1.33005
H         -1.91265        1.21940       -0.97500
H         -0.53802        3.03590        0.05152
H         -0.07740        1.95253        1.42724
H          0.68403        1.51813       -1.57165
H          2.88131       -0.13575       -0.86581
H          1.97860       -1.06654        1.65031
H          0.94530        0.37091        2.07001
H          0.15992       -2.12389        0.37644
