19
dsC7O2H10nsd_1653.xyz
C         -1.23083        1.87400       -0.49737
C         -0.92234        0.48978        0.03521
C         -0.38597        0.31964        1.45842
C          0.52590        0.09291        0.31730
C          1.79090        0.84092       -0.09243
O          2.42036       -0.39694       -0.47519
C          1.25900       -1.17789       -0.09919
C         -1.79434       -0.61343       -0.44834
O         -1.70617       -1.76604       -0.09133
H         -2.24097        2.19068       -0.21536
H         -0.53232        2.61553       -0.10057
H         -1.16256        1.90817       -1.59053
H         -0.27293        1.22542        2.04636
H         -0.74078       -0.55279        1.99790
H          1.69355        1.53448       -0.93841
H          2.32708        1.34502        0.72293
H          0.83972       -1.73022       -0.94621
H          1.48029       -1.88017        0.71323
H         -2.55851       -0.30784       -1.19871
