19
dsC7O2H10nsd_3999.xyz
O         -2.95450       -0.21695       -0.14633
C         -1.61961       -0.25058        0.30622
C         -0.97657        1.13002        0.67954
C          0.12836        0.90780       -0.39356
C         -0.52031       -0.45164       -0.79038
C          0.79519       -1.17887       -0.43343
C          1.21774       -0.91934        1.00189
C          1.42972        0.14781       -0.02842
O          2.68906        0.61981       -0.35652
H         -3.01047        0.41616       -0.87030
H         -1.60945       -0.99705        1.10397
H         -1.65243        1.95595        0.43644
H         -0.64680        1.25464        1.71504
H          0.29495        1.68932       -1.13501
H         -0.89312       -0.63559       -1.79940
H          1.21527       -2.01073       -0.98555
H          0.50557       -0.82973        1.81693
H          2.13295       -1.43708        1.27314
H          3.05992        1.05999        0.41638
