19
dsC7O2H10nsd_0911.xyz
O          3.13261        0.63765       -0.27573
C          2.47019       -0.34005       -0.04263
C          1.21945       -0.35248        0.80932
C          0.00731       -0.79895       -0.00926
C         -1.44324       -0.76212        0.53945
C         -1.65940        0.69588        0.99653
C         -1.07003        1.39174       -0.27235
C         -0.70674        0.10905       -1.04804
O         -1.90110       -0.71094       -0.84714
H          2.74161       -1.33206       -0.47466
H          1.37387       -1.07445        1.62410
H          1.09278        0.63897        1.24892
H          0.18026       -1.77791       -0.46439
H         -1.87702       -1.57294        1.12513
H         -2.72167        0.90423        1.13593
H         -1.13409        0.94422        1.92266
H         -1.81480        1.97561       -0.81587
H         -0.20801        2.03222       -0.06923
H         -0.39036        0.18996       -2.08776
