19
dsC7O2H10nsd_5420.xyz
C         -1.74017       -1.47790        0.78054
O         -0.99207       -1.41139       -0.42160
C         -0.11890       -0.32182       -0.54632
C          1.18775       -0.36359        0.29289
C          2.36160       -1.06902       -0.39305
C          1.42960        1.09674        0.59470
C          0.39149        1.88892        0.29492
C         -0.71253        1.08265       -0.26944
O         -1.85378        1.42308       -0.47898
H         -2.42182       -0.62661        0.88065
H         -2.32220       -2.40062        0.72789
H         -1.09508       -1.52767        1.67073
H          0.16982       -0.31159       -1.60685
H          0.97963       -0.88406        1.23827
H          2.62123       -0.57473       -1.33552
H          3.25274       -1.06931        0.24347
H          2.10368       -2.10856       -0.61526
H          2.36938        1.43666        1.02066
H          0.31644        2.95706        0.45522
