19
dsC7O2H10nsd_3304.xyz
O         -2.51683       -0.12746        0.09259
C         -1.19939       -0.64038        0.07243
C         -0.30343       -0.03457       -1.04851
C          0.99820       -0.84441       -1.18211
C          1.59396       -1.10055        0.18643
C          0.96903       -0.63475        1.27274
C         -0.31534        0.14004        1.08472
C         -0.08987        1.17262       -0.07544
O          1.07737        1.93719       -0.13223
H         -2.95284       -0.39623       -0.72281
H         -1.18850       -1.73338        0.17527
H         -0.76869        0.15730       -2.02018
H          0.80660       -1.79621       -1.69608
H          1.71546       -0.30260       -1.81423
H          2.52193       -1.66137        0.25426
H          1.36251       -0.79231        2.27195
H         -0.77899        0.47220        2.01353
H         -0.92954        1.86392       -0.13467
H          1.80868        1.36284        0.12862
