19
dsC7O2H10nsd_0019.xyz
C          1.61588        1.84601        0.35478
C          1.16632        0.38272        0.47218
C          1.97911       -0.51903       -0.48196
O          1.68724       -1.89141       -0.32141
C         -0.30861        0.20832        0.22374
C         -1.16582       -0.58837        0.92333
O         -2.42237       -0.53533        0.40394
C         -2.36887        0.30869       -0.65839
C         -1.11160        0.79140       -0.82337
H          1.05401        2.48730        1.03939
H          2.68024        1.94398        0.59116
H          1.46577        2.22874       -0.66043
H          1.37934        0.02805        1.48819
H          1.81445       -0.18777       -1.52141
H          3.04741       -0.40710       -0.26744
H          0.73201       -1.98893       -0.41647
H         -1.04307       -1.20891        1.79618
H         -3.29759        0.45840       -1.18403
H         -0.78986        1.48179       -1.58736
