19
dsC7O2H10nsd_3867.xyz
C          0.62199        2.06801       -0.63679
C          0.55420        0.71108        0.00447
C          0.14602        0.48371        1.41613
C         -0.68870       -0.19387        0.34602
C          0.03913       -1.43273       -0.16508
C          1.26303       -0.53044       -0.54176
O          2.50067       -0.77232        0.09127
C         -2.09370        0.13500        0.10582
O         -2.88486       -0.59401       -0.44885
H          0.43694        2.01442       -1.71488
H         -0.10602        2.75919       -0.20203
H          1.61807        2.50241       -0.49024
H          0.74017       -0.14272        2.07496
H         -0.32172        1.33546        1.90217
H          0.24547       -2.19880        0.58851
H         -0.45002       -1.88949       -1.02681
H          1.38156       -0.46166       -1.63173
H          2.87592       -1.57849       -0.27769
H         -2.39866        1.14576        0.46557
