19
dsC7O2H10nsd_5465.xyz
C          2.86227        0.23553       -0.02887
O          1.73766       -0.61091        0.04063
C          0.58903       -0.08180       -0.56887
C         -0.53150       -1.10532       -0.55976
C         -1.84238       -0.31485       -0.57705
C         -1.46624        1.16472       -0.59037
C         -0.18748        0.99015        0.25816
O         -0.64331        0.24836        1.39472
C         -1.27354       -0.82627        0.72565
H          2.72014        1.16940        0.53463
H          3.70293       -0.30847        0.40810
H          3.11083        0.49609       -1.07026
H          0.82435        0.29563       -1.57661
H         -0.41987       -2.09230       -0.98550
H         -2.75040       -0.70549       -1.01552
H         -1.25990        1.56004       -1.58902
H         -2.20757        1.79857       -0.09596
H          0.34562        1.88074        0.58254
H         -1.72191       -1.56675        1.37146
