19
dsC7O2H10nsd_5094.xyz
C         -2.86844       -0.62408       -0.04043
O         -1.80785       -0.07069       -0.80400
C         -0.67368        0.16141       -0.06055
C         -0.49718        1.38767        0.79619
C          0.43523        1.12654       -0.37495
C          1.47308       -0.01478       -0.11621
O          2.52329       -0.23172       -0.98814
C          1.40518       -0.63012        1.25569
C          0.36349       -0.97880        0.20660
H         -3.17493        0.05370        0.76832
H         -3.70738       -0.77538       -0.72308
H         -2.58833       -1.59054        0.40157
H         -1.23503        2.15595        0.58106
H         -0.16810        1.37462        1.82975
H          0.52595        1.80480       -1.21317
H          3.26557        0.31566       -0.70625
H          2.14070       -1.41769        1.39533
H          1.17327       -0.08130        2.16236
H          0.21866       -1.98761       -0.15683
