19
dsC7O2H10nsd_3511.xyz
C          0.93885        2.02117        0.29552
C          0.11239        0.92043       -0.38722
C         -1.36682        1.21074       -0.29492
C         -2.26939        0.28892        0.02669
C         -1.88759       -1.14557        0.25043
O         -0.56872       -1.43193       -0.17514
C          0.38421       -0.46960        0.23659
C          1.73340       -1.03959       -0.17779
O          2.79700       -0.53046        0.06361
H          0.76241        2.98581       -0.19095
H          0.65452        2.12082        1.34906
H          2.00570        1.79490        0.24992
H          0.40161        0.88241       -1.44822
H         -1.66989        2.23934       -0.47763
H         -3.32123        0.53914        0.13422
H         -2.01568       -1.41478        1.31511
H         -2.54019       -1.81334       -0.32408
H          0.38075       -0.36316        1.33601
H          1.64551       -1.99110       -0.74690
