19
dsC7O2H10nsd_4435.xyz
C          2.03077        1.17156       -0.81112
C          1.22318       -0.08977       -0.59106
O          1.84055       -0.98213        0.36575
C          0.64431       -1.03059        1.15941
C         -0.08204       -0.01271        0.25201
C         -0.72352        1.29610        0.79305
C         -2.10926        0.88850        0.19973
C         -1.43443       -0.36767       -0.37391
O         -1.79705       -1.27680       -1.06404
H          2.17923        1.71752        0.12511
H          3.01445        0.90917       -1.21296
H          1.53516        1.83147       -1.53146
H          1.05214       -0.61222       -1.54251
H          0.19486       -2.03161        1.17022
H          0.81418       -0.69310        2.18972
H         -0.70148        1.38847        1.88112
H         -0.30752        2.20813        0.36042
H         -2.88967        0.66454        0.93326
H         -2.53335        1.55662       -0.55530
