19
dsC7O2H10nsd_0589.xyz
C          1.79116        0.78090       -0.07776
C          1.74849       -0.76637       -0.25117
C          0.35806       -1.19673        0.23104
O         -0.61408       -1.15986       -0.83796
C         -1.45383       -0.05089       -0.53055
C         -0.67726        1.25186       -0.78665
C          0.37404        1.18234        0.36812
C         -0.17792       -0.05516        1.13689
O         -1.57933       -0.07505        0.87893
H          2.51757        1.05513        0.69430
H          2.09486        1.29978       -0.99083
H          1.89144       -1.08278       -1.28688
H          2.52604       -1.25273        0.34617
H          0.33552       -2.19351        0.68007
H         -2.42019       -0.17697       -1.01734
H         -0.22644        1.27011       -1.78129
H         -1.33750        2.11693       -0.68273
H          0.36581        2.09390        0.96725
H          0.02372       -0.12618        2.20403
