19
dsC7O2H10nsd_1691.xyz
O         -0.09424       -1.30324        1.17651
C          0.13923       -0.52551        0.01566
C         -1.17546       -0.55932       -0.77737
C         -2.30767        0.00859        0.05680
O         -2.65334        1.16338        0.01175
C          1.39206       -0.87203       -0.87134
C          1.86549        0.57764       -0.71675
C          2.09508        0.87194        0.73464
C          0.68383        0.89645        0.20555
H          0.60766       -1.11534        1.80807
H         -1.07176        0.04021       -1.68507
H         -1.39413       -1.59980       -1.04300
H         -2.79600       -0.70877        0.74884
H          2.05646       -1.63627       -0.45450
H          1.12193       -1.15845       -1.89014
H          2.28177        1.19152       -1.50472
H          2.44650        0.08449        1.40090
H          2.50434        1.84891        0.96952
H          0.06853        1.78589        0.26089
