19
dsC7O2H10nsd_0882.xyz
O          3.15231        0.34744       -0.01598
C          2.27766       -0.47792       -0.00261
C          0.80485       -0.17770       -0.26933
C          0.39994        1.19598        0.27529
C         -0.97870        1.66634       -0.11632
C         -2.10457        0.95117       -0.12047
C         -2.26823       -0.49929        0.26967
C         -1.20813       -1.46675       -0.26325
O          0.08662       -1.26397        0.27631
H          2.47350       -1.55462        0.19437
H          0.68755       -0.17001       -1.36989
H          0.48828        1.16331        1.37083
H          1.15648        1.90819       -0.06685
H         -1.04987        2.71691       -0.38933
H         -3.02238        1.46522       -0.39748
H         -2.28796       -0.58786        1.36569
H         -3.24341       -0.85939       -0.07919
H         -1.48193       -2.48997        0.01408
H         -1.16855       -1.41046       -1.36276
