19
dsC7O2H10nsd_0118.xyz
C          0.85467        0.17033        1.49711
C          0.53194        0.76706        0.15265
C         -0.70669        1.51467       -0.24682
C         -1.92621        0.59118        0.00769
C         -1.66535       -0.84956       -0.45743
O         -0.61733       -1.49320        0.28585
C          0.52672       -0.72016        0.31467
C          1.67999       -0.72757       -0.68567
O          1.70058        0.73356       -0.68975
H          1.86906        0.24359        1.87787
H          0.06737        0.20895        2.24224
H         -0.82629        2.47553        0.26526
H         -0.62717        1.72401       -1.31971
H         -2.17792        0.57365        1.07487
H         -2.80362        0.98138       -0.51863
H         -2.55058       -1.47234       -0.30615
H         -1.42332       -0.85769       -1.53204
H          2.63836       -1.15867       -0.37478
H          1.39762       -1.11689       -1.67096
