19
dsC7O2H10nsd_6028.xyz
O         -3.50080       -0.24902       -0.17241
C         -2.24335        0.02099        0.42871
C         -1.09444       -0.70887       -0.27619
C          0.25664       -0.46684        0.40070
C          1.49743       -1.06981       -0.28917
C          2.72133       -0.65181        0.43571
C          2.10116        0.34210       -0.54110
C          0.85727        0.92676        0.04450
O          0.37382        2.02626        0.02218
H         -3.52168        0.20340       -1.02136
H         -2.03067        1.09731        0.46805
H         -2.32586       -0.33521        1.46213
H         -1.31445       -1.78310       -0.29073
H         -1.04588       -0.38120       -1.32406
H          0.19161       -0.69600        1.47138
H          1.47080       -1.88652       -0.99861
H          2.68653       -0.45950        1.50476
H          3.66289       -1.06546        0.08927
H          2.66619        0.73325       -1.37800
