19
dsC7O2H10nsd_2000.xyz
C         -1.72905        1.51696       -0.41624
C         -1.12156        0.23709        0.07790
C         -1.87685       -1.05152        0.24359
C         -0.67648       -1.03637       -0.66469
C          0.57929       -1.14363        0.20442
O          1.79647       -0.78216       -0.41642
C          1.81020        0.62460       -0.48830
O          1.14149        1.10136        0.66050
C          0.13152        0.15855        0.96745
H         -2.43677        1.33020       -1.23036
H         -2.27266        2.03158        0.38509
H         -0.95761        2.20185       -0.78192
H         -1.84761       -1.60169        1.18336
H         -2.83958       -1.09098       -0.25652
H         -0.73513       -1.28605       -1.71764
H          0.74258       -2.07928        0.74465
H          2.84586        0.97464       -0.47050
H          1.30562        0.97340       -1.40499
H         -0.01078        0.15866        2.05147
