19
dsC7O2H10nsd_4313.xyz
O         -1.61269       -1.33774       -0.82248
C         -1.41100       -0.62450        0.38717
C         -1.95007        0.83416        0.28167
C         -0.73674        1.60379       -0.21494
C          0.37539        0.92120        0.04955
C          1.83385        0.96311       -0.28797
O          2.31178       -0.36495       -0.03879
C          1.20521       -1.26512        0.12721
C          0.08743       -0.40327        0.71985
H         -1.25484       -0.79890       -1.53805
H         -1.92970       -1.20848        1.15128
H         -2.81196        0.87882       -0.39303
H         -2.29123        1.20248        1.25953
H         -0.80308        2.56282       -0.71631
H          2.00543        1.24869       -1.33659
H          2.40977        1.65371        0.34192
H          0.89387       -1.69356       -0.83577
H          1.54761       -2.07694        0.77360
H          0.21701       -0.32325        1.80842
