19
dsC7O2H10nsd_5938.xyz
C         -2.88331        0.70980       -0.00855
O         -1.54924        0.39454       -0.34474
C         -0.70731        0.26796        0.79522
C          0.71166        0.05742        0.30216
C          1.51600       -1.11061        0.88524
C          0.94102       -1.23352       -0.48610
O         -0.14049       -2.09036       -0.66166
C          1.42081        1.23476       -0.11337
C          2.02039        2.21917       -0.45864
H         -2.94567        1.66992        0.52497
H         -3.44567        0.78599       -0.94190
H         -3.34106       -0.06722        0.62302
H         -0.76891        1.17446        1.41454
H         -1.03269       -0.58637        1.40486
H          2.58461       -0.96935        0.99105
H          1.03847       -1.68451        1.67148
H          1.62424       -1.15943       -1.33049
H         -0.85583       -1.55487       -1.03197
H          2.54472        3.08809       -0.77004
