19
dsC7O2H10nsd_3202.xyz
C          2.74855       -0.57322        0.20439
C          1.36820       -0.07449       -0.11883
C          1.11252        1.26940       -0.75282
C          0.58686        0.97062        0.64386
C         -0.80014        0.40492        0.83608
C         -1.69442        0.14895       -0.35147
O         -3.05032        0.04250       -0.02588
C         -0.77361       -0.94186        0.14475
O          0.47529       -1.12035       -0.47501
H          3.40228        0.25814        0.48276
H          2.72075       -1.28826        1.03298
H          3.19119       -1.07503       -0.66259
H          1.95291        1.95381       -0.81385
H          0.42723        1.33770       -1.58869
H          1.02390        1.50068        1.48191
H         -1.28657        0.53530        1.79477
H         -1.47490        0.63149       -1.30236
H         -3.44563       -0.60778       -0.61698
H         -1.19878       -1.84911        0.56343
