19
dsC7O2H10nsd_4187.xyz
C          2.70938        0.14903        0.00960
C          1.20197        0.10199        0.01576
O          0.63581       -0.83344        0.98808
C          0.47369       -1.11023       -0.41084
C         -0.92292       -0.97374       -0.96851
C         -1.69085        0.19771       -0.32545
O         -2.15978       -0.14916        0.97572
C         -0.84376        1.45150       -0.27587
C          0.47810        1.39835       -0.10232
H          3.07915        0.76754        0.83458
H          3.12859       -0.85369        0.11885
H          3.07716        0.58328       -0.92628
H          1.05602       -1.96349       -0.76204
H         -0.84810       -0.82889       -2.05405
H         -1.49501       -1.89195       -0.79713
H         -2.59601        0.38978       -0.91012
H         -1.36174       -0.34247        1.48818
H         -1.35512        2.40816       -0.32489
H          1.07306        2.30491       -0.03166
