19
dsC7O2H10nsd_1603.xyz
C         -0.27185        1.88840       -0.00011
C         -0.67652        0.42621        0.00001
C         -2.14965        0.18596        0.00009
O         -2.67483       -0.90312       -0.00003
C          0.10023       -0.66440       -0.74654
C          1.52450       -0.35713       -1.16423
O          2.18885        0.13290       -0.00006
C          1.52458       -0.35695        1.16423
C          0.10028       -0.66429        0.74668
H         -0.67012        2.40087        0.88299
H          0.81146        2.00745       -0.00014
H         -0.67015        2.40074       -0.88326
H         -2.76566        1.11345       -0.00002
H         -0.48250       -1.38691       -1.30503
H          2.00035       -1.27846       -1.53570
H          1.61846        0.41121       -1.93931
H          2.00045       -1.27822        1.53582
H          1.61858        0.41151        1.93919
H         -0.48241       -1.38671        1.30532
