19
dsC7O2H10nsd_0010.xyz
C          2.10106        0.79949        0.99799
C          1.47432        0.24222       -0.28098
O          2.29903       -0.84669       -0.68864
C          0.04753       -0.19449       -0.08622
C         -0.37827       -1.46482        0.15217
O         -1.73079       -1.50756        0.27741
C         -2.17491       -0.23260        0.11659
C         -1.14385        0.62375       -0.11156
C         -1.23171        2.10039       -0.34639
H          2.09688        0.03310        1.77797
H          3.13417        1.10305        0.80706
H          1.54032        1.66624        1.35851
H          1.49619        1.03717       -1.04607
H          1.89037       -1.24042       -1.46695
H          0.13889       -2.40355        0.25640
H         -3.24200       -0.09381        0.18403
H         -2.27321        2.43332       -0.35868
H         -0.71171        2.67011        0.43244
H         -0.78091        2.38514       -1.30439
