19
dsC7O2H10nsd_4752.xyz
C         -3.42708       -0.99959       -0.28248
O         -2.09570       -0.83227        0.15519
C         -1.49925        0.39107       -0.25560
C         -1.95305        1.58411        0.60459
C         -0.04780        0.23198       -0.19276
C          1.15559        0.15168       -0.14623
C          2.60142        0.04221       -0.08872
C          3.13069       -1.25659        0.48400
O          3.32201        0.93770       -0.47586
H         -3.73026       -2.00702        0.01116
H         -4.11986       -0.27999        0.17674
H         -3.50843       -0.90963       -1.37695
H         -1.76936        0.59150       -1.30717
H         -1.69969        1.40450        1.65206
H         -1.45829        2.50046        0.27277
H         -3.03347        1.72660        0.52046
H          2.76737       -2.10372       -0.10762
H          4.22149       -1.23811        0.48319
H          2.75685       -1.39732        1.50387
