19
dsC7O2H10nsd_5033.xyz
O         -2.48600       -0.28424        0.22235
C         -1.45378       -1.17917       -0.16342
C         -0.07833       -0.57083       -0.00828
C          0.44873        0.03505        1.33985
C          1.46565        0.74177        0.38362
C          2.16852       -0.46938       -0.22331
C          1.16590       -1.32035       -0.47867
C          0.27229        0.84994       -0.64587
O         -0.66835        1.88894       -0.49070
H         -2.34900        0.52654       -0.28351
H         -1.55741       -2.06332        0.47699
H         -1.58727       -1.51867       -1.20479
H         -0.26883        0.70255        1.82973
H          0.85869       -0.66425        2.07188
H          2.05506        1.60974        0.67859
H          3.22455       -0.55941       -0.43469
H          1.18341       -2.29048       -0.95623
H          0.54370        0.84185       -1.70378
H         -0.80202        2.05567        0.44905
