19
dsC7O2H10nsd_2047.xyz
O          0.82006        1.88559       -0.13578
C          0.87475        0.52942        0.07997
C          1.96430       -0.10318        0.87098
C          1.71802       -0.60350       -0.53934
C          0.48505       -1.51769       -0.53938
C         -0.37126       -0.34264        0.01310
C         -1.45982       -0.40913        1.10259
C         -2.37647        0.21993        0.03938
O         -1.31758        0.20213       -0.94838
H          0.15328        2.00638       -0.82686
H          2.83952        0.53039        0.97888
H          1.75892       -0.73335        1.73557
H          2.49013       -0.57242       -1.29718
H          0.13557       -1.79495       -1.53643
H          0.54369       -2.41370        0.08931
H         -1.73481       -1.41928        1.41098
H         -1.26400        0.20005        1.98684
H         -3.23237       -0.38443       -0.28074
H         -2.71720        1.24025        0.24914
