19
dsC7O2H10nsd_5602.xyz
C         -2.80943       -0.81265       -0.07651
O         -1.91859        0.25367        0.18098
C         -0.63027        0.03271       -0.30725
C          0.34809       -0.83851        0.56001
C          1.37861       -1.65290       -0.25592
C          2.30545       -0.40251       -0.33380
C          1.35563        0.37358        0.64144
C          0.30852        1.24658       -0.04586
O          0.17367        2.42386       -0.20130
H         -2.49170       -1.74359        0.41545
H         -3.78426       -0.51902        0.31909
H         -2.90213       -1.00495       -1.15638
H         -0.65357       -0.28093       -1.36560
H         -0.11382       -1.27896        1.44301
H          1.82725       -2.46852        0.31619
H          1.02239       -2.06066       -1.20700
H          3.30694       -0.55486        0.07189
H          2.40832        0.04915       -1.32381
H          1.80034        0.76425        1.55702
