19
dsC7O2H10nsd_1128.xyz
C         -2.68668        0.84539        0.07292
C         -1.56505       -0.17064       -0.05284
O         -1.71815       -1.34075        0.20335
C         -0.21926        0.39921       -0.50632
O          0.60586       -0.57648       -1.15413
C          1.79042       -0.57308       -0.32979
C          1.22287       -0.61311        1.10711
C          0.70966        0.79916        0.67006
C          2.05715        0.93519       -0.10875
H         -2.34927        1.74624        0.59749
H         -3.00625        1.16271       -0.92707
H         -3.53402        0.40125        0.59607
H         -0.39891        1.24825       -1.18071
H          2.51314       -1.27983       -0.73230
H          0.49095       -1.38947        1.32807
H          1.99135       -0.54717        1.87872
H          0.34853        1.55017        1.37161
H          2.08671        1.57705       -0.99277
H          2.90142        1.13594        0.55282
