19
dsC7O2H10nsd_3738.xyz
O         -2.59239        0.01137       -0.74008
C         -1.48888       -0.75651       -0.37968
C         -1.17007       -0.97936        1.09665
C         -0.35142       -0.03703        0.27120
O         -0.50212        1.38465        0.41909
C          0.87799        1.60021        0.01124
C          1.11357        0.09384       -0.05901
C          2.26819       -0.69398        0.47610
C          1.95460       -0.70280       -1.00477
H         -2.32139        0.93506       -0.63391
H         -1.28401       -1.56865       -1.07376
H         -1.84534       -0.53217        1.81924
H         -0.72970       -1.92700        1.39325
H          0.93653        2.13744       -0.94287
H          1.43735        2.14623        0.77869
H          3.14516       -0.14996        0.81259
H          2.04921       -1.58739        1.05231
H          2.61846       -0.16488       -1.67419
H          1.52595       -1.60312       -1.43374
