19
dsC7O2H10nsd_0403.xyz
C          2.16359       -0.23453       -0.68524
O          2.11354       -0.13541        0.74556
C          0.89405       -0.00382        0.01306
C          0.26157        1.38759        0.11391
O         -1.10559        1.41332       -0.28912
C         -1.79151        0.18076       -0.10735
C         -1.26136       -0.61945        1.11451
C         -0.13711       -1.10480        0.14990
C         -1.16351       -0.91611       -1.00774
H          2.66274        0.59073       -1.19197
H          2.39860       -1.22514       -1.07449
H          0.35295        1.70932        1.16140
H          0.79090        2.11974       -0.50201
H         -2.85508        0.40903       -0.19144
H         -0.98730       -0.07376        2.02014
H         -1.94443       -1.43172        1.37281
H          0.33364       -2.07642        0.31046
H         -0.79265       -0.59781       -1.98530
H         -1.81728       -1.78501       -1.11750
