19
dsC7O2H10nsd_4768.xyz
C         -2.89174        0.18993        0.19091
O         -1.65600        0.16792       -0.48828
C         -0.60374       -0.46406        0.21576
C         -0.63286       -1.98151        0.02707
C          0.70628        0.17111       -0.33254
C          1.93313       -0.43085        0.36235
O          2.68631       -1.21101       -0.15363
C          0.72944        1.61447       -0.12979
C          0.81692        2.79248        0.09254
H         -3.59017        0.74501       -0.43959
H         -3.29985       -0.81723        0.35969
H         -2.80920        0.69933        1.16288
H         -0.67767       -0.21912        1.28801
H          0.17522       -2.47105        0.57783
H         -1.57939       -2.39229        0.38845
H         -0.53014       -2.23439       -1.03230
H          0.77735       -0.07460       -1.39779
H          2.07506       -0.07978        1.40818
H          0.87165        3.83944        0.26215
