19
dsC7O2H10nsd_5281.xyz
C          0.84150        2.48526        0.35047
C          0.45690        1.41229       -0.67719
C         -0.40362        0.32818       -0.09257
C         -1.89154        0.45526        0.25677
O         -2.13883       -0.92417       -0.14494
C         -0.78045       -1.04724       -0.52053
C          0.12430       -0.88082        0.71189
C          1.52136       -1.31117        0.52517
O          2.15574       -1.19885       -0.50340
H          1.45161        3.26615       -0.11256
H         -0.04311        2.96660        0.78226
H          1.41910        2.05216        1.17365
H         -0.08895        1.87619       -1.50904
H          1.35538        0.95943       -1.10323
H         -2.17248        0.64203        1.29876
H         -2.42369        1.14522       -0.40719
H         -0.50076       -1.67534       -1.35778
H         -0.31639       -1.09990        1.68103
H          1.97336       -1.79896        1.41667
