19
dsC7O2H10nsd_1428.xyz
C         -2.33512       -0.35187        0.22593
C         -0.85760       -0.48402       -0.07172
O         -0.54051       -1.53789       -0.94058
C          0.11808       -0.22634        1.07169
C          1.49256       -0.79055        0.96567
C          2.15738       -0.28405       -0.07398
C          1.32933        0.72372       -0.83825
C         -0.00228        0.76815       -0.07610
O         -0.58383        2.01897        0.16018
H         -2.71654       -1.28263        0.65676
H         -2.52878        0.46989        0.91802
H         -2.90250       -0.15329       -0.69346
H         -0.92482       -1.33608       -1.80103
H         -0.32103       -0.01752        2.04198
H          1.87045       -1.53887        1.65217
H          3.15914       -0.56449       -0.37836
H          1.78223        1.72341       -0.84321
H          1.19991        0.42227       -1.88641
H         -1.03739        2.29857       -0.64266
