19
dsC7O2H10nsd_1902.xyz
C         -0.57259        2.02086       -0.41078
C          0.25337        0.87502        0.11903
C         -0.11055        0.21074        1.42027
C         -0.23384       -0.58252        0.13251
O          0.80313       -1.45283       -0.22500
C          2.04054       -0.74263       -0.12908
C          1.71051        0.75209       -0.31545
C         -1.55319       -0.98554       -0.39388
O         -2.59735       -0.44714       -0.10371
H         -0.25904        2.96490        0.04929
H         -0.45653        2.12346       -1.49551
H         -1.63274        1.87048       -0.19439
H          0.66261       -0.08915        2.11990
H         -1.05360        0.50501        1.86849
H          2.49778       -0.92438        0.85267
H          2.71548       -1.13935       -0.89180
H          2.38771        1.38981        0.26145
H          1.79156        1.04565       -1.36764
H         -1.50496       -1.83478       -1.10838
