19
dsC7O2H10nsd_3892.xyz
C          3.11367       -0.92282       -0.31522
C          2.09230        0.05073        0.25238
C          1.22605        0.86537       -0.76447
C         -0.01469        0.45871        0.03398
C          0.78522       -0.54783        0.86825
O         -0.88099        1.40648        0.61767
C         -1.44125        0.50834       -0.35816
C         -2.38757       -0.50671        0.18438
O         -3.23434       -1.05536       -0.47449
H          3.92036       -0.39381       -0.83412
H          3.56740       -1.52866        0.47658
H          2.64730       -1.60730       -1.03338
H          2.57392        0.72514        0.96638
H          1.40588        1.94089       -0.82720
H          1.24260        0.44059       -1.77309
H          0.65947       -0.45977        1.94973
H          0.61402       -1.58789        0.57333
H         -1.71343        0.94951       -1.31594
H         -2.23733       -0.72234        1.26553
