19
dsC7O2H10nsd_1658.xyz
O         -1.10434       -0.25670        1.43999
C         -0.99626        0.29471        0.17334
C         -0.37444        1.67098        0.04893
C          0.40570        0.48363       -0.43664
C          1.58243       -0.04269        0.31634
C          2.97842        0.17147       -0.22005
C          2.36956       -1.20836       -0.22837
C         -2.07144       -0.11048       -0.74720
O         -2.92264       -0.91029       -0.42214
H         -1.83190       -0.89528        1.36886
H         -0.78650        2.37031       -0.67133
H         -0.08298        2.10757        0.99814
H          0.46737        0.36364       -1.51644
H          1.46507       -0.00968        1.39385
H          3.08352        0.68470       -1.17031
H          3.77124        0.38525        0.48823
H          2.06687       -1.62204       -1.18504
H          2.74304       -1.94544        0.47339
H         -2.04368        0.34124       -1.76023
