19
dsC7O2H10nsd_4658.xyz
C         -2.80516       -1.33553       -0.55635
C         -1.70425       -0.30088       -0.77209
C         -1.04619        0.15083        0.51760
O         -1.40978       -0.19843        1.61323
C          0.16510        1.11712        0.37414
O         -0.02831        2.05189       -0.68468
C          1.38008        0.32641        0.20965
C          2.35979       -0.34853        0.01565
C          3.55442       -1.15423       -0.18684
H         -3.26214       -1.61770       -1.50889
H         -2.40922       -2.23735       -0.08171
H         -3.58558       -0.94070        0.09883
H         -0.91357       -0.68223       -1.43331
H         -2.08296        0.59847       -1.27278
H          0.20550        1.68527        1.31054
H          0.49276        1.75563       -1.43741
H          4.41683       -0.52831       -0.44016
H          3.80413       -1.71252        0.72178
H          3.41625       -1.87945       -0.99587
