19
dsC7O2H10nsd_2493.xyz
C         -0.53816        2.02460        0.76382
C         -0.22819        0.73588        0.01561
O         -1.43771        0.30859       -0.63270
C         -1.37847       -1.09170       -0.66945
O         -0.77246       -1.50672        0.53754
C          0.16432       -0.49690        0.90349
C          1.62266       -0.85941        0.53498
C          1.91145       -0.01156       -0.67977
C          0.93061        0.84637       -0.95141
H         -0.82342        2.81391        0.06184
H         -1.36780        1.86719        1.45881
H          0.33782        2.36546        1.32360
H         -2.39565       -1.49163       -0.71615
H         -0.79273       -1.44244       -1.53725
H          0.03997       -0.31151        1.97368
H          2.31353       -0.62925        1.35659
H          1.71205       -1.93408        0.34315
H          2.83677       -0.09781       -1.24025
H          0.91550        1.56154       -1.76630
