19
dsC7O2H10nsd_5569.xyz
C          2.73288       -0.22109       -0.15532
O          1.57339       -0.86877        0.33105
C          0.41110       -0.57394       -0.40288
C         -0.81306       -1.20739        0.30955
C         -2.02066       -0.85278       -0.59895
C         -1.76107        0.59216       -0.17739
C         -1.02386        0.16070        1.07818
C         -0.23450        0.77033       -0.04245
O          0.35349        2.02123       -0.03043
H          2.65992        0.86944       -0.06681
H          3.57327       -0.57634        0.44629
H          2.92288       -0.47827       -1.21003
H          0.56105       -0.81582       -1.46950
H         -0.69100       -2.18576        0.76704
H         -1.95172       -1.12132       -1.66003
H         -2.96296       -1.22781       -0.18906
H         -2.38954        1.46672       -0.29824
H         -1.13798        0.42899        2.11703
H          0.25605        2.41258       -0.90599
