19
dsC7O2H10nsd_5464.xyz
C          3.01312        0.36586       -0.09743
C          1.82970       -0.56198        0.19666
C          0.55337       -0.17528       -0.55023
C         -0.13563        1.11075       -0.09693
C         -1.09472        0.65178        0.99871
O         -0.96630       -0.75226        1.13453
C         -0.68341       -1.05363       -0.22865
O         -1.73278       -0.42841       -0.95932
C         -1.60879        0.86813       -0.40212
H          3.91273        0.03307        0.42927
H          3.24406        0.38926       -1.16836
H          2.80640        1.39356        0.21907
H          2.10151       -1.58889       -0.08229
H          1.62240       -0.57826        1.27153
H          0.71866       -0.17430       -1.63307
H          0.31879        2.09070       -0.11746
H         -1.37360        1.18282        1.89623
H         -0.66064       -2.12621       -0.40163
H         -2.33947        1.58983       -0.73502
