19
dsC7O2H10nsd_4477.xyz
C          2.08447       -1.25652       -0.24328
C          1.19654       -0.34651        0.60830
C          1.34271        1.19600        0.24436
O          0.17953        1.65240       -0.51472
C         -0.51856        0.48367       -0.87078
C         -1.90092       -0.03676       -0.33583
C         -1.43484        0.20888        1.09838
C         -0.27301       -0.44158        0.29151
O         -1.25698       -1.39834       -0.29202
H          1.91854       -2.30787        0.00871
H          1.87571       -1.13104       -1.31021
H          3.14218       -1.03015       -0.07738
H          1.41661       -0.49415        1.66981
H          1.40733        1.81682        1.14263
H          2.24461        1.35738       -0.35746
H         -0.27208        0.10992       -1.86952
H         -2.89488       -0.00246       -0.78203
H         -1.30835        1.24248        1.42243
H         -1.88832       -0.43644        1.85102
