19
dsC7O2H10nsd_5457.xyz
C          2.87019       -0.13784       -0.08750
O          1.64094        0.50252        0.17187
C          0.55085       -0.06506       -0.51130
C          0.02044       -1.36638        0.09751
C         -1.50043       -1.26141       -0.08501
O         -1.78045       -0.06579       -0.81563
C         -0.76608        0.57745        0.01645
C         -0.92634        2.05035        0.20183
C         -0.86355       -0.59434        1.07730
H          3.10223       -0.14658       -1.16379
H          3.64598        0.42590        0.43626
H          2.88087       -1.17581        0.27608
H          0.70838       -0.02806       -1.60017
H          0.52650       -2.31110        0.24812
H         -2.17131       -2.10548       -0.17480
H         -0.94712        2.54712       -0.77432
H         -1.85777        2.28139        0.72583
H         -0.08175        2.44400        0.77304
H         -1.00052       -0.64179        2.14800
