19
dsC7O2H10nsd_0381.xyz
C         -1.98350        0.82595       -0.46641
C         -2.28343       -0.43874        0.32967
C         -0.87554       -0.05935       -0.00686
O         -0.17026       -0.84094       -0.97710
C          1.19632       -0.83583       -0.53165
C          1.72938        0.59561       -0.68936
O          1.04935        1.31310        0.36237
C          0.19440        0.34519        0.99298
C          1.06039       -0.92476        0.99789
H         -2.21519        0.81010       -1.52546
H         -2.10855        1.79058        0.01418
H         -2.62501       -0.34218        1.35543
H         -2.70232       -1.27886       -0.21336
H          1.74396       -1.61455       -1.06052
H          2.81526        0.66874       -0.54642
H          1.46159        1.01199       -1.66608
H         -0.16312        0.75074        1.93822
H          1.99658       -0.79684        1.54396
H          0.53588       -1.82539        1.32029
