19
dsC7O2H10nsd_0494.xyz
C          1.64364       -1.21091        0.23931
O          2.34886       -0.14940       -0.44538
C          1.53752        0.86062        0.18860
C          0.33483        1.29060       -0.67883
C         -0.54238        0.20117        0.00482
C         -1.88115        0.58200        0.67110
O         -2.59170       -0.44485       -0.04543
C         -1.40101       -0.82097       -0.76613
C          0.66335       -0.21885        0.88868
H          1.22538       -1.95160       -0.45391
H          2.29830       -1.72660        0.95327
H          2.13621        1.62632        0.68811
H         -0.01886        2.30788       -0.48190
H          0.50380        1.17284       -1.75228
H         -1.93502        0.44000        1.75885
H         -2.25027        1.58711        0.42370
H         -1.14681       -1.87794       -0.61390
H         -1.49386       -0.63001       -1.84369
H          0.49500       -0.29610        1.96290
