19
dsC7O2H10nsd_5856.xyz
O         -2.88891       -0.62217       -0.36192
C         -1.77992       -0.68716        0.52081
C         -0.51277       -0.41592       -0.28773
C         -0.51572        0.99353       -0.93583
C          0.53337        1.78711       -0.12410
O          0.80179        1.01303        1.04490
C          0.71725       -0.35405        0.65690
C          1.94846       -0.82443        0.00951
C          2.95546       -1.20087       -0.52857
H         -3.69373       -0.70339        0.15782
H         -1.86143        0.06062        1.32570
H         -1.70878       -1.68020        0.99301
H         -0.40035       -1.20390       -1.03520
H         -0.24966        0.95105       -1.99394
H         -1.51303        1.43236       -0.86854
H          1.45663        1.92552       -0.70329
H          0.18529        2.76696        0.21139
H          0.55640       -0.92744        1.57701
H          3.84887       -1.53773       -0.99376
