19
dsC7O2H10nsd_3486.xyz
O         -2.32343       -0.39817       -0.39399
C         -1.33903        0.16949        0.45835
C         -0.77165        1.44395       -0.13547
C          0.53446        1.61596       -0.34532
C          1.52279        0.52882        0.02471
C          1.40969       -0.64706       -0.96552
O          0.22470       -1.35278       -0.56662
C         -0.21247       -0.85002        0.71351
C          1.02225       -0.17216        1.30570
H         -1.81953       -0.82550       -1.10084
H         -1.85800        0.38896        1.40136
H         -1.49568        2.20477       -0.41390
H          0.91288        2.52441       -0.80587
H          2.54383        0.90853        0.09774
H          1.29947       -0.32750       -2.00632
H          2.27838       -1.31651       -0.89186
H         -0.59289       -1.70059        1.28523
H          0.78486        0.52833        2.10883
H          1.74029       -0.91126        1.67465
