19
dsC7O2H10nsd_3300.xyz
O          3.07190       -0.37765        0.07280
C          1.75170       -0.02551        0.37155
C          0.87222        0.68649       -0.62013
C         -0.22417        1.58414       -0.04748
C         -1.25283        0.63312        0.58566
O         -2.31422        0.27543       -0.33243
C         -1.96810       -1.12254       -0.26966
C         -0.70376       -0.82470        0.56086
C          0.58918       -0.76820       -0.22684
H          3.12296       -0.62043       -0.85714
H          1.69168        0.27600        1.41491
H          1.29646        0.92163       -1.59141
H          0.17239        2.28983        0.69218
H         -0.71956        2.16861       -0.82811
H         -1.66370        1.00149        1.53277
H         -2.73413       -1.70730        0.25626
H         -1.80794       -1.55458       -1.26516
H         -0.62076       -1.35455        1.51259
H          0.81574       -1.57984       -0.91365
