19
dsC7O2H10nsd_2883.xyz
C          0.08317        1.97749        0.94278
C          0.04714        0.78794        0.02517
C          1.20480        0.13325       -0.76680
O          2.27650       -0.42740       -0.05337
C         -0.00851       -0.74826       -1.12789
C         -0.98005        0.47776       -1.12679
C         -1.98345       -0.20099       -0.16273
C         -0.58631       -0.61495        0.32992
O         -0.21011       -1.35395        1.44789
H          0.80766        1.81691        1.74813
H          0.38093        2.88229        0.40192
H         -0.89372        2.16470        1.40190
H          1.64014        0.72632       -1.57776
H          1.89933       -0.93247        0.67867
H         -0.07908       -1.62232       -1.77764
H         -1.18955        1.11718       -1.98099
H         -2.56864        0.45506        0.48901
H         -2.61463       -0.98723       -0.59047
H         -0.57442       -2.24299        1.36912
