19
dsC7O2H10nsd_1458.xyz
C         -1.13986       -1.14518        1.24979
C         -0.63022       -0.57509       -0.06212
O         -0.74860       -1.49016       -1.13436
C         -1.24643        0.76604       -0.53055
O         -0.96406        1.74334        0.47053
C          0.05843        1.43977       -0.49985
C          0.74926        0.17717       -0.03533
C          2.04139       -0.37096       -0.55057
C          1.91060        0.03755        0.90036
H         -0.49415       -1.96125        1.59896
H         -1.15035       -0.36980        2.01900
H         -2.15147       -1.54307        1.12366
H         -0.30104       -2.30566       -0.88538
H         -2.11288        0.90312       -1.16700
H          0.44486        2.26369       -1.08897
H          2.08635       -1.42919       -0.78996
H          2.63592        0.25165       -1.21173
H          1.86949       -0.74905        1.64771
H          2.41560        0.93837        1.23399
