19
dsC7O2H10nsd_2783.xyz
C          1.98265       -1.61632       -0.51579
C          0.91890       -1.04804        0.43130
C          1.26277        0.39243        0.88067
C          0.48137        1.32798       -0.05765
O          0.77497        2.46944       -0.31886
C         -0.66798        0.55886       -0.61272
C         -1.52411       -0.20467        0.41273
O         -2.81446       -0.55346        0.02418
C         -0.43070       -0.91592       -0.28636
H          2.95170       -1.69424       -0.01314
H          1.70381       -2.61440       -0.86905
H          2.11098       -0.97378       -1.39426
H          0.82301       -1.71597        1.29518
H          0.93538        0.59095        1.90902
H          2.32992        0.62157        0.83989
H         -1.16375        0.90218       -1.51147
H         -1.41084        0.04693        1.46775
H         -3.37827        0.22174        0.12005
H         -0.72342       -1.67872       -0.99967
