19
dsC7O2H10nsd_0868.xyz
O         -3.13496       -0.54137       -0.09546
C         -2.07669       -0.02558       -0.34874
C         -0.81153       -0.20907        0.46085
C         -0.22852        1.16404        0.90677
C          0.67465        1.61574       -0.25772
C          1.27721        0.32048       -0.78587
O          2.30008       -0.21414        0.08939
C          1.51331       -1.38880        0.37462
C          0.30633       -0.83466       -0.40894
H         -1.97130        0.64471       -1.23528
H         -1.06860       -0.84690        1.31131
H         -1.00724        1.89109        1.15452
H          0.37286        1.01580        1.80814
H          0.08600        2.08987       -1.05256
H          1.44707        2.32587        0.05017
H          1.63156        0.37962       -1.82067
H          1.96083       -2.29314       -0.05670
H          1.36955       -1.54052        1.45164
H         -0.07027       -1.47528       -1.20782
