19
dsC7O2H10nsd_2630.xyz
C         -0.75970       -1.28897       -1.30154
C         -0.92875       -0.17790       -0.28530
C         -2.22482        0.60104       -0.40002
C         -0.34948       -0.37424        1.09429
O          0.26518       -1.58628        1.38876
C          0.32267        0.61667        0.15841
O          0.16204        1.95910        0.54358
C          1.61479        0.29140       -0.38139
C          2.70954        0.05253       -0.82166
H         -0.73537       -0.88277       -2.31860
H          0.15458       -1.85666       -1.13106
H         -1.60397       -1.98462       -1.23794
H         -3.07929       -0.06151       -0.22292
H         -2.26924        1.42182        0.31805
H         -2.33821        1.02356       -1.40541
H         -0.87869        0.09694        1.92362
H          1.15531       -1.40478        1.71082
H          0.19988        2.50040       -0.25346
H          3.67177       -0.15812       -1.21856
