19
dsC7O2H10nsd_4767.xyz
C          3.08250       -0.10666        0.32549
C          1.75978        0.38162       -0.27008
C          0.56195       -0.45666        0.19107
O          0.69276       -1.81626       -0.17709
C         -0.79311        0.13711       -0.32916
C         -1.06532        1.49106        0.33543
O         -0.88610        2.55359       -0.19575
C         -1.91833       -0.74751       -0.05845
C         -2.87839       -1.42151        0.20323
H          3.92522        0.46950       -0.06693
H          3.08525       -0.00202        1.41595
H          3.24570       -1.16202        0.09290
H          1.59175        1.43350       -0.01498
H          1.80421        0.34293       -1.36840
H          0.52272       -0.47367        1.28744
H          0.72903       -1.86502       -1.13950
H         -0.69679        0.32375       -1.40645
H         -1.44031        1.40968        1.37896
H         -3.71449       -2.04004        0.41852
