19
dsC7O2H10nsd_3828.xyz
C         -1.41677        1.85911       -0.29272
C         -0.22083        1.06713        0.14587
C         -0.19894        0.23135        1.36990
C         -0.04843       -0.50192        0.04981
C         -1.06780       -1.43716       -0.42944
O         -2.21804       -1.46030       -0.04472
C          1.35017       -0.31263       -0.51310
O          2.34449       -0.96117        0.24855
C          1.20779        1.24482       -0.38485
H         -1.44809        2.82858        0.21896
H         -1.39562        2.05241       -1.37062
H         -2.34049        1.32151       -0.06021
H          0.65629        0.24105        2.03929
H         -1.16087        0.05726        1.84037
H         -0.71949       -2.13154       -1.22834
H          1.39708       -0.61760       -1.56841
H          3.20309       -0.75710       -0.13642
H          1.90933        1.71613        0.31083
H          1.25609        1.75689       -1.34893
