19
dsC7O2H10nsd_5145.xyz
O          2.72746       -0.78037        0.05511
C          1.88522        0.15370       -0.60456
C          0.49498        0.19705       -0.02287
C          0.18197        1.14052        1.13321
C         -0.44974        1.35729       -0.21897
O         -1.75046        0.88221       -0.46105
C         -1.74484       -0.52565       -0.53964
C         -1.53467       -1.31878        0.72235
C         -0.36725       -1.03880       -0.20593
H          2.70558       -0.57149        0.99526
H          2.32147        1.16557       -0.59423
H          1.84961       -0.17486       -1.64961
H         -0.43304        0.80915        1.96033
H          0.96308        1.84231        1.41341
H         -0.21297        2.24705       -0.79405
H         -2.37428       -0.90350       -1.33810
H         -1.60718       -0.81713        1.67928
H         -1.91229       -2.33633        0.72599
H          0.08997       -1.86754       -0.73236
