19
dsC7O2H10nsd_4033.xyz
C         -2.49800        0.79395       -0.13758
C         -1.47380       -0.13551        0.48179
O         -1.10834       -1.25466       -0.41992
C          0.09208       -0.54417       -0.86856
C          1.54659       -0.75095       -0.36456
C          0.97387       -0.79043        1.06932
C          0.00352        0.25770        0.42189
O          0.79134        1.42129        0.28208
C          1.92907        0.77684       -0.40164
H         -3.42078        0.24527       -0.34691
H         -2.73003        1.61068        0.55393
H         -2.13157        1.22837       -1.07136
H         -1.81907       -0.52766        1.44463
H         -0.05630       -0.11503       -1.86259
H          2.29528       -1.43763       -0.76387
H          0.49355       -1.73159        1.32577
H          1.60408       -0.41688        1.87859
H          2.01327        1.18567       -1.41469
H          2.84757        0.98115        0.15527
