19
dsC7O2H10nsd_1779.xyz
C          2.39531        0.28647        0.58970
C          1.02169       -0.10003        0.13179
C          0.78152       -1.39156       -0.67752
C         -0.78152       -1.39156       -0.67752
C         -1.02169       -0.10003        0.13179
C         -2.39531        0.28647        0.58971
O          0.00000       -0.21710        1.19212
C         -0.00000        0.87913       -0.49030
O         -0.00000        1.97726       -0.95615
H          3.04770        0.43028       -0.27704
H          2.36782        1.21931        1.15830
H          2.83115       -0.49655        1.21842
H          1.21777       -1.34366       -1.67935
H          1.20017       -2.25666       -0.15715
H         -1.21777       -1.34366       -1.67935
H         -1.20017       -2.25666       -0.15716
H         -3.04770        0.43029       -0.27703
H         -2.83116       -0.49656        1.21840
H         -2.36782        1.21930        1.15831
