19
dsC7O2H10nsd_6021.xyz
O          3.50789        0.29021       -0.01525
C          2.28952       -0.33851       -0.37334
C          1.14756       -0.01485        0.59574
C         -0.13103       -0.77300        0.27150
C         -1.49460       -0.35955        0.93655
C         -2.18165       -1.14015       -0.23473
C         -1.03079       -0.36002       -0.95629
C         -1.46846        0.81194       -0.06100
O         -1.67471        1.98428       -0.11302
H          3.37814        1.24200       -0.07813
H          1.99264       -0.08224       -1.40304
H          2.49797       -1.41442       -0.35961
H          1.47578       -0.26512        1.61187
H          0.96018        1.06746        0.58308
H          0.02293       -1.85712        0.30794
H         -1.75171       -0.37249        1.99365
H         -2.03967       -2.22269       -0.19927
H         -3.20865       -0.87165       -0.48696
H         -0.77643       -0.37476       -2.01394
