19
dsC7O2H10nsd_1209.xyz
C          2.54497       -0.86191       -0.97885
C          1.81631        0.06265        0.01536
C          1.97178        1.54121       -0.38952
O          2.33143       -0.13814        1.33844
C          0.39254       -0.29187        0.07002
C         -0.77351       -0.58993        0.07170
C         -2.19796       -0.88760        0.09503
C         -3.05329        0.37412        0.23411
O         -4.09655        0.53773       -0.33688
H          3.60800       -0.59707       -1.02157
H          2.45486       -1.90144       -0.65661
H          2.12920       -0.76626       -1.98558
H          1.53699        1.72980       -1.37489
H          1.47778        2.18284        0.34330
H          3.03493        1.80604       -0.42859
H          3.26783        0.08943        1.31278
H         -2.52826       -1.42955       -0.79714
H         -2.43287       -1.52514        0.96145
H         -2.63262        1.13461        0.92715
