19
dsC7O2H10nsd_3555.xyz
C         -2.71787       -0.73045        0.12864
C         -1.27248       -0.38533       -0.08027
C         -0.28309       -1.26423        0.16508
C          1.14468       -0.96995       -0.06318
O          2.01302       -1.78125        0.19366
C          1.46804        0.39392       -0.66727
C          0.45137        1.46961       -0.26813
O          0.57861        1.83361        1.10058
C         -0.97706        1.00540       -0.59315
H         -3.28725       -0.58290       -0.79791
H         -2.84951       -1.76449        0.45502
H         -3.17027       -0.06640        0.87586
H         -0.49657       -2.26063        0.54220
H          2.48063        0.67860       -0.37277
H          1.46310        0.27448       -1.76001
H          0.66086        2.39350       -0.81622
H          0.41283        1.04933        1.63614
H         -1.68838        1.72077       -0.16543
H         -1.14001        1.02503       -1.68108
