19
dsC7O2H10nsd_1757.xyz
O         -2.22252       -0.26588       -0.62105
C         -0.91615       -0.14936       -0.16776
C         -0.30502       -0.89389        1.00710
C          1.11595       -1.33220        0.66593
C          1.28306       -0.98887       -0.83766
C          0.27835        0.15066       -1.11407
C          0.75340        1.51223       -0.57673
O          0.51812        1.47671        0.83946
C         -0.56980        0.61577        1.05625
H         -2.33410       -1.14685       -0.99542
H         -0.93196       -1.50322        1.64997
H          1.84308       -0.78596        1.27515
H          1.26261       -2.39864        0.85716
H          2.31080       -0.72138       -1.10285
H          1.00817       -1.85944       -1.44439
H         -0.03063        0.21175       -2.15959
H          1.81871        1.70693       -0.73266
H          0.17374        2.32973       -1.03056
H         -1.32397        0.99438        1.73766
