19
dsC7O2H10nsd_2702.xyz
C         -2.56937       -0.50453       -0.89412
C         -1.24061       -0.47360       -0.20651
C         -0.62091       -1.45976        0.44513
C          0.71843       -1.06756        1.01147
C          0.91028        0.38223        0.51638
C          2.04514        0.53847       -0.47723
O          2.77728       -0.34010       -0.85374
C         -0.44592        0.81542       -0.14231
O         -1.13302        1.84423        0.56594
H         -2.45875       -0.33171       -1.97236
H         -3.07627       -1.46290       -0.75490
H         -3.21835        0.29350       -0.51660
H         -1.02138       -2.46236        0.56080
H          0.73961       -1.14494        2.10557
H          1.52754       -1.70228        0.63453
H          1.11838        1.09454        1.32386
H          2.15501        1.57634       -0.86770
H         -0.28680        1.25208       -1.13674
H         -1.41537        1.47062        1.40908
