19
dsC7O2H10nsd_0573.xyz
C         -2.23363        0.29040       -0.41048
C         -1.90464       -0.85195        0.58398
C         -0.38416       -0.81709        0.67078
C          0.37727       -0.82953       -0.64552
C          1.88956       -0.84693       -0.54032
O          2.24248        0.17491        0.39976
C          1.25791        1.20141        0.36251
C         -0.01748        0.48023        0.01161
O         -1.13951        1.21203       -0.36199
H         -2.33495       -0.10387       -1.43086
H         -3.14650        0.83862       -0.16544
H         -2.32407       -0.64162        1.57306
H         -2.31538       -1.80733        0.24358
H          0.10473       -1.16295        1.57598
H         -0.08962       -1.19905       -1.55199
H          2.31323       -1.78239       -0.15876
H          2.33273       -0.64458       -1.52839
H          1.24732        1.68291        1.34558
H          1.47975        1.96543       -0.40030
