19
dsC7O2H10nsd_2272.xyz
C         -2.26797       -0.47301        0.18016
C         -0.84459       -0.02314       -0.04571
C         -0.61746        1.36521       -0.71442
C          0.79697        1.74793       -0.17713
C          1.12370        0.50616        0.69566
O         -0.15679        0.14067        1.20457
C          1.42638       -0.63273       -0.28927
O          0.81593       -1.87763        0.05399
C          0.09968       -0.98278       -0.79794
H         -2.28307       -1.44041        0.68939
H         -2.80652        0.25309        0.79609
H         -2.79484       -0.57424       -0.77380
H         -0.65893        1.31357       -1.80647
H         -1.38092        2.07276       -0.38197
H          1.52939        1.90701       -0.97397
H          0.76455        2.65032        0.43680
H          1.82340        0.65655        1.51732
H          2.34247       -0.67040       -0.87050
H         -0.10895       -1.31841       -1.80949
