19
dsC7O2H10nsd_2292.xyz
C          1.87803       -1.26239        0.22562
C          0.53726       -0.56913        0.10216
C         -0.38293       -1.05010       -1.06960
C         -1.76298       -0.40726       -0.73457
C         -1.44463        0.34181        0.57180
C         -0.46047       -0.59341        1.28274
O         -0.59527        1.46753        0.21223
C          0.63191        0.94705       -0.09729
O          1.55126        1.61409       -0.47348
H          2.49332       -1.06240       -0.65631
H          2.43070       -0.90199        1.09836
H          1.75162       -2.34551        0.32181
H          0.00785       -0.74645       -2.04368
H         -0.43249       -2.14303       -1.05961
H         -2.11207        0.28658       -1.50179
H         -2.54142       -1.15876       -0.57650
H         -2.29212        0.73117        1.13306
H         -0.05731       -0.16618        2.20479
H         -0.87321       -1.58574        1.48470
