19
dsC7O2H10nsd_5674.xyz
C         -3.06450       -1.08055       -0.06319
C         -2.35295        0.26086       -0.25387
C         -1.01580        0.33347        0.49284
O         -0.12024       -0.69243        0.02347
C          1.08420       -0.12832       -0.47242
C          2.27200       -0.64134        0.34569
O          3.40137       -0.68307       -0.06235
C          0.92265        1.36168       -0.29228
C         -0.25114        1.61134        0.27576
H         -4.00447       -1.11008       -0.62189
H         -2.43249       -1.90208       -0.41018
H         -3.29686       -1.25823        0.99287
H         -2.16421        0.44546       -1.31811
H         -2.98843        1.08140        0.10400
H         -1.20416        0.15683        1.56476
H          1.25060       -0.41189       -1.52206
H          1.98764       -0.95385        1.37586
H          1.68685        2.06951       -0.58377
H         -0.65030        2.58400        0.53440
