19
dsC7O2H10nsd_4638.xyz
O          3.70669        0.82928        0.01057
C          3.15625       -0.42647        0.38719
C          1.77767       -0.61265       -0.06200
C          0.63079       -0.69852       -0.41986
C         -0.76031       -0.80460       -0.84856
C         -1.69482        0.15749       -0.12075
O         -1.36445        1.51105       -0.26751
C         -2.23732       -0.20004        1.22472
C         -3.15468       -0.19937        0.01345
H          3.06746        1.50497        0.26027
H          3.80876       -1.18424       -0.06130
H          3.20652       -0.57251        1.47846
H         -0.82939       -0.61989       -1.93092
H         -1.11655       -1.83122       -0.69835
H         -1.51212        1.75620       -1.18817
H         -1.95302       -1.15071        1.66191
H         -2.34700        0.61407        1.93118
H         -3.50368       -1.15044       -0.37515
H         -3.86444        0.61609       -0.06753
