19
dsC7O2H10nsd_3212.xyz
C         -2.43145       -0.92414       -0.18830
C         -1.19484       -0.37083        0.51109
C         -0.88032        1.15537        0.21421
C          0.47789        1.30361        0.89963
C          0.82292        0.44230       -0.32506
C          2.12138       -0.37932       -0.36524
O          1.41265       -1.36772        0.46259
C          0.14247       -0.87097       -0.10232
O         -0.16329        1.20312       -1.09749
H         -2.52511       -2.00384       -0.03375
H         -3.34376       -0.45033        0.18887
H         -2.37758       -0.73862       -1.26601
H         -1.26773       -0.50978        1.59359
H         -1.69069        1.88158        0.27188
H          0.89370        2.30688        0.79784
H          0.62676        0.89165        1.89930
H          2.38444       -0.79694       -1.34459
H          3.00348        0.02266        0.13964
H         -0.04664       -1.42260       -1.03151
