19
dsC7O2H10nsd_5947.xyz
C         -3.39622        0.11970       -0.12438
O         -2.02499        0.42734       -0.04696
C         -1.21082       -0.72727        0.04576
C          0.21480       -0.31659        0.07845
C          1.07235        0.40767        1.11888
C          1.55082        1.42421        0.08247
C          1.22596        0.32168       -0.95578
O          2.20595       -0.72127       -0.67342
C          1.48399       -0.95433        0.53347
H         -3.74642       -0.41944        0.77070
H         -3.93986        1.06431       -0.20153
H         -3.62928       -0.49810       -1.00655
H         -1.45137       -1.29887        0.95989
H         -1.40420       -1.39698       -0.81037
H          0.85814        0.55088        2.17033
H          0.85775        2.26489        0.00533
H          2.58857        1.77056        0.11154
H          1.08757        0.51271       -2.01766
H          1.68621       -1.84894        1.10814
