19
dsC7O2H10nsd_2429.xyz
C          2.21628       -0.65635       -0.21484
C          0.83981       -0.08887        0.02543
C          0.06076       -0.56771        1.29092
C         -1.32380       -0.59930        0.61958
O         -1.05406       -1.50397       -0.49850
C         -0.29351       -0.38970       -1.01930
C         -1.27278        0.61019       -0.37526
C         -0.44788        1.82231        0.03360
O          0.90719        1.34287        0.04626
H          2.64908       -0.23652       -1.12794
H          2.88728       -0.42413        0.61775
H          2.15822       -1.74366       -0.31955
H          0.33855       -1.56917        1.62629
H          0.17097        0.14035        2.11589
H         -2.20688       -0.86203        1.20165
H         -0.04063       -0.44804       -2.07730
H         -2.20520        0.78963       -0.90694
H         -0.52154        2.63967       -0.69249
H         -0.72819        2.21922        1.01980
