19
dsC7O2H10nsd_1218.xyz
C         -2.08491       -1.32071       -0.41784
C         -0.94647       -0.39619        0.03290
O         -0.63373       -0.78144        1.36674
C          0.30007       -0.58746       -0.87282
C          1.42206        0.37206       -0.54775
C          2.78926       -0.08768       -0.27491
O          1.93514        0.31544        0.79979
C         -1.39657        1.00976       -0.01579
C         -1.75878        2.15551       -0.05996
H         -2.42758       -1.05978       -1.42221
H         -1.73677       -2.35745       -0.41028
H         -2.92365       -1.22998        0.27575
H          0.22719       -0.39823        1.58563
H          0.63380       -1.62139       -0.73616
H          0.01859       -0.45709       -1.92362
H          1.28704        1.39179       -0.90405
H          3.01363       -1.15231       -0.31931
H          3.63307        0.57439       -0.46007
H         -2.08452        3.16631       -0.08095
