19
dsC7O2H10nsd_5227.xyz
C          1.46055        1.96465       -0.03875
C          1.04608        0.52390       -0.00421
C          1.87355       -0.69747       -0.42672
C          0.77161       -1.53106        0.26879
O         -0.39043       -1.32548       -0.58878
C         -0.41092        0.02285       -0.08706
C         -1.66354        0.79221       -0.33565
O         -2.79609        0.13985        0.21153
C          0.39731       -0.27655        1.13459
H          2.41225        2.11317        0.48389
H          1.58777        2.31683       -1.06891
H          0.71835        2.60971        0.44301
H          2.03565       -0.89447       -1.49169
H          2.81963       -0.73400        0.12108
H          0.90320       -2.56331        0.58510
H         -1.60084        1.78004        0.13150
H         -1.77877        0.94495       -1.42166
H         -2.70403       -0.79210       -0.01925
H          0.25111       -0.08694        2.18895
