19
dsC7O2H10nsd_2574.xyz
C          2.43121       -0.00783       -0.52644
C          1.05181        0.40920       -0.11920
C          0.56014        1.64930       -0.03258
C         -0.88974        1.70839        0.39477
C         -1.28508        0.23033        0.46195
O         -1.81739       -0.26793       -0.78921
C         -0.76991       -1.25232       -0.91198
C          0.00614       -0.61904        0.25770
O          0.42687       -1.56647        1.20883
H          2.40898       -0.59398       -1.45402
H          3.08207        0.85534       -0.68704
H          2.88911       -0.65295        0.23195
H          1.13056        2.54520       -0.25934
H         -1.01769        2.22936        1.35317
H         -1.52147        2.22676       -0.33611
H         -1.92500       -0.04151        1.30841
H         -1.12129       -2.26564       -0.67863
H         -0.30172       -1.23937       -1.90252
H          0.87318       -1.09620        1.92188
