19
dsC7O2H10nsd_0426.xyz
C          2.01573       -0.19849        0.90444
O          2.38667        0.19229       -0.41359
C          0.97995        0.09667       -0.10481
C          0.25643       -1.03279       -0.81628
C         -0.94240       -1.58524       -0.02834
O         -1.66057       -0.61401        0.70763
C         -2.08309        0.52549       -0.01690
C         -1.02988        1.60421       -0.11810
C          0.28891        1.41544       -0.09532
H          2.22685       -1.23536        1.16714
H          2.22515        0.52792        1.68847
H         -0.07141       -0.65935       -1.79318
H          0.96355       -1.84545       -1.01083
H         -1.61369       -2.12239       -0.71871
H         -0.60010       -2.30282        0.72412
H         -2.45950        0.24215       -1.01556
H         -2.94272        0.92669        0.53252
H         -1.41201        2.62144       -0.16539
H          0.96119        2.26920       -0.10906
