19
dsC7O2H10nsd_3777.xyz
O          3.00310       -0.88005        0.07489
C          1.91451       -0.06711        0.40275
C          1.63606        1.17401       -0.40431
C          0.77892       -0.06475       -0.58124
C         -0.61955       -0.09107       -0.10016
C         -1.57143       -1.29955        0.01105
C         -2.77761       -0.30991       -0.15893
C         -1.76192        0.83488       -0.25254
O         -0.98913        0.80739        0.95869
H          3.80175       -0.44723        0.39490
H          1.64943       -0.04094        1.45901
H          1.19169        2.02025        0.10643
H          2.32679        1.40813       -1.20643
H          0.96360       -0.64871       -1.47792
H         -1.48097       -1.99730       -0.82505
H         -1.50791       -1.84895        0.95305
H         -3.32873       -0.47468       -1.08782
H         -3.47989       -0.23840        0.67486
H         -1.84132        1.79013       -0.75946
