19
dsC7O2H10nsd_0303.xyz
C          1.54793       -0.57487       -0.78049
O          1.74910        0.54246        0.09390
C          0.56151        0.76269        0.86098
C         -0.46315        1.60850        0.08804
C         -1.09065        0.77797       -1.06163
C         -1.13002       -0.68377       -0.61200
O         -1.45822       -0.69755        0.81309
C         -0.03986       -0.65606        1.08500
C          0.28594       -1.26410       -0.28727
H          1.47590       -0.23819       -1.82415
H          2.42226       -1.23190       -0.70293
H          0.87547        1.26199        1.78098
H         -1.25236        1.90753        0.78357
H          0.01725        2.51706       -0.28386
H         -2.10417        1.13034       -1.27650
H         -0.51849        0.87235       -1.99159
H         -1.81285       -1.31023       -1.19118
H          0.23028       -1.13780        2.02625
H          0.30945       -2.35250       -0.33228
