19
dsC7O2H10nsd_3262.xyz
O         -2.23822       -0.16929        0.07349
C         -1.03009       -0.51540       -0.56542
C         -0.15896        0.69157       -1.05725
C         -0.06513        1.75727        0.06025
C          0.95233        0.81739        0.73919
O          0.27894       -0.27046        1.40940
C         -0.03380       -1.22590        0.37391
C          1.24759       -1.29309       -0.45881
C          1.29447        0.21696       -0.66564
H         -2.00033        0.09453        0.97135
H         -1.30053       -1.16066       -1.40772
H         -0.38237        1.00918       -2.07591
H          0.41944        2.67162       -0.29531
H         -0.97194        2.02070        0.60958
H          1.71686        1.21467        1.40950
H         -0.40166       -2.13665        0.84698
H          2.09722       -1.68675        0.10530
H          1.12696       -1.86288       -1.38455
H          2.13204        0.66150       -1.19963
