19
dsC7O2H10nsd_2388.xyz
C          1.82124        1.45365       -0.53171
C          0.76790        0.52987        0.06141
C          1.31118       -0.46173        1.14778
C          1.16443       -1.63958        0.14222
C          0.37607       -0.71302       -0.80568
O         -1.03932       -0.87559       -0.67788
C         -1.62308        0.14655        0.01324
O         -2.79535        0.16665        0.24640
C         -0.56837        1.18932        0.38279
H          2.12630        2.21567        0.19384
H          2.71986        0.89936       -0.82417
H          1.44101        1.96859       -1.42100
H          2.32392       -0.25420        1.50029
H          0.65626       -0.54740        2.01867
H          2.11594       -1.96012       -0.28893
H          0.61569       -2.51980        0.48106
H          0.62674       -0.72351       -1.86964
H         -0.75294        2.08156       -0.22703
H         -0.69169        1.48094        1.42849
