19
dsC7O2H10nsd_3958.xyz
C          2.87863       -0.18987        0.35104
C          1.57977        0.21824       -0.30717
O          0.83076       -0.95014       -0.79119
C         -0.31754       -0.50452       -0.11372
C         -1.48517       -1.28847        0.44777
O         -2.34272       -0.13561        0.21788
C         -1.36629        0.52155       -0.63413
C         -0.61850        1.68093        0.06864
C          0.40459        0.64660        0.61987
H          3.52551       -0.70460       -0.36601
H          3.40902        0.69369        0.72275
H          2.69182       -0.86487        1.19168
H          1.76157        0.91351       -1.13733
H         -1.78899       -2.14682       -0.16766
H         -1.45287       -1.58397        1.50247
H         -1.71401        0.62673       -1.66548
H         -0.19707        2.43310       -0.60578
H         -1.22054        2.18081        0.83058
H          0.62816        0.63168        1.68744
