19
dsC7O2H10nsd_4613.xyz
O         -3.56244        0.28675        0.65857
C         -2.92129       -0.26983       -0.48252
C         -1.46535       -0.32255       -0.36995
C         -0.26547       -0.30967       -0.24797
C          1.16719       -0.29565       -0.12087
C          1.85918        0.98637       -0.56412
O          1.44979        2.12234        0.17192
C          1.91413       -1.60480       -0.32938
C          1.78521       -1.04826        1.05660
H         -3.12726        1.12479        0.84751
H         -3.33030       -1.28110       -0.58823
H         -3.19374        0.27766       -1.39932
H          2.94961        0.83523       -0.50414
H          1.61137        1.20411       -1.60773
H          1.57258        1.92332        1.10637
H          1.32261       -2.47297       -0.59232
H          2.88041       -1.54807       -0.81950
H          1.10723       -1.53612        1.74598
H          2.66721       -0.61323        1.51670
