19
dsC7O2H10nsd_2563.xyz
C         -2.83354       -0.50845        0.31195
C         -1.39965       -0.20378       -0.01852
C         -0.53183       -1.12305       -0.44692
C          0.90697       -0.80775       -0.69718
O          1.77044       -1.19599        0.41984
C          1.88025        0.17024        0.86984
C          1.25329        0.67684       -0.45228
O          0.21511        1.61375       -0.46591
C         -0.97752        1.22920        0.19598
H         -3.07255       -0.21785        1.34313
H         -3.51827        0.05228       -0.33693
H         -3.05038       -1.57374        0.20200
H         -0.84906       -2.15458       -0.58273
H          1.27134       -1.25900       -1.62671
H          1.27418        0.36483        1.76499
H          2.91792        0.45720        1.07035
H          2.00464        1.05984       -1.14502
H         -0.89811        1.42044        1.28120
H         -1.75202        1.90902       -0.17891
