19
dsC7O2H10nsd_2927.xyz
C         -0.34505        2.14250       -0.05971
C         -0.25443        0.65264        0.12013
C         -1.36337       -0.35495        0.51940
O         -2.40949       -0.60439       -0.39330
C         -0.13093       -1.24621        0.33500
C          0.72732       -0.15003        1.05145
C          2.08226       -0.14278        0.35495
O          1.68315       -0.31173       -1.01443
C          0.27250       -0.40231       -0.90943
H         -1.12539        2.39956       -0.78529
H         -0.58055        2.65036        0.88255
H          0.59940        2.55003       -0.43602
H         -1.73750       -0.26589        1.54851
H         -3.08255        0.07237       -0.27299
H         -0.05598       -2.32583        0.46247
H          0.68374       -0.03197        2.13496
H          2.62956        0.80066        0.47679
H          2.73504       -0.96883        0.66435
H         -0.18478       -0.54474       -1.88426
