19
dsC7O2H10nsd_2587.xyz
C          2.11681        1.24486        0.36440
C          0.71016        0.80396        0.07696
C         -0.32338        1.63260       -0.07328
C         -1.71472        1.12100       -0.35521
O         -1.95290       -0.17131        0.18911
C         -0.95890       -1.10943       -0.09377
C         -0.05155       -1.51395        1.04838
C          0.46796       -0.66288       -0.09863
O          1.29075       -1.29916       -1.04671
H          2.48579        0.80959        1.30245
H          2.79624        0.91578       -0.43079
H          2.18730        2.33257        0.44382
H         -0.19507        2.70948        0.00385
H         -2.46441        1.77287        0.10449
H         -1.90802        1.12525       -1.44227
H         -1.24064       -1.87155       -0.81752
H         -0.23138       -1.03165        2.00238
H          0.27874       -2.54695        1.08768
H          2.11037       -1.54864       -0.60646
