19
dsC7O2H10nsd_5223.xyz
O          2.63572       -0.63402       -0.33985
C          1.62427       -0.70337        0.64827
C          0.42046        0.08860        0.23367
O          0.66626        1.52447       -0.03548
C         -0.76103        1.30854       -0.31596
C         -0.92139        0.42390        0.95611
C         -1.93909       -0.67844        0.68632
C         -1.59320       -1.01880       -0.79913
C         -0.46314       -0.02776       -1.04973
H          2.71524        0.29750       -0.57873
H          1.35920       -1.75972        0.76858
H          1.98073       -0.33334        1.62325
H         -1.34771        2.16805       -0.64179
H         -0.87403        0.90985        1.93026
H         -1.81061       -1.53479        1.35523
H         -2.96763       -0.32472        0.80645
H         -1.26638       -2.05530       -0.92683
H         -2.44012       -0.86034       -1.47361
H          0.03419        0.01307       -2.01751
