19
dsC7O2H10nsd_1215.xyz
C          1.60836       -0.62678       -1.27185
C          1.28231        0.16107        0.00001
C          1.99043        1.51640       -0.00075
C          1.60868       -0.62550        1.27259
O         -0.14246        0.54610       -0.00005
C         -1.11162       -0.37609        0.00001
O         -0.97439       -1.57621        0.00001
C         -2.41164        0.26960        0.00004
C         -3.51400        0.74771        0.00004
H          1.10380       -1.59274       -1.27987
H          1.30721       -0.06062       -2.15837
H          2.68859       -0.79330       -1.32676
H          1.71736        2.09544        0.88557
H          3.07449        1.37177       -0.00080
H          1.71717        2.09454       -0.88760
H          1.10420       -1.59149        1.28167
H          2.68893       -0.79188        1.32745
H          1.30767       -0.05848        2.15860
H         -4.48973        1.16924       -0.00010
