19
dsC7O2H10nsd_3595.xyz
C          3.14750       -0.45543        0.21391
C          1.68552       -0.22164        0.00749
C          0.75825       -1.12931       -0.31525
C         -0.60058       -0.49140       -0.48767
C         -1.80873       -1.25680       -0.00527
O         -2.76891       -0.72188        0.49701
C         -0.42929        0.87425        0.22779
O         -1.21468        1.91675       -0.30298
C          1.07499        1.16407        0.10902
H          3.45885       -0.14080        1.21797
H          3.41179       -1.50887        0.08773
H          3.74430        0.13380       -0.49391
H          0.94781       -2.18519       -0.47984
H         -0.79769       -0.30385       -1.55989
H         -1.79016       -2.35943       -0.16001
H         -0.67233        0.71394        1.28862
H         -2.13040        1.69263       -0.09905
H          1.26808        1.74658       -0.80321
H          1.46251        1.74988        0.94924
