19
dsC7O2H10nsd_1514.xyz
C         -2.06149        1.18902       -0.34499
C         -1.31170       -0.08568       -0.03192
O         -1.82533       -0.81395        1.05731
C         -0.79533       -0.96505       -1.16106
C          0.14846       -0.20059       -0.28349
C          1.28267        0.81952       -0.46375
C          2.29903       -0.34919       -0.51082
C          1.29876       -0.59448        0.64707
O          1.43138        0.84240        1.01694
H         -1.98574        1.89820        0.48775
H         -1.65755        1.67870       -1.23593
H         -3.12109        0.97474       -0.51679
H         -1.61104       -0.32090        1.85781
H         -0.86873       -2.03707       -1.00990
H         -0.95874       -0.63404       -2.18214
H          1.29234        1.77593       -0.98674
H          2.26629       -1.02432       -1.36898
H          3.31083       -0.09028       -0.19612
H          1.32264       -1.32982        1.45082
