19
dsC7O2H10nsd_1456.xyz
C         -1.20910       -0.94293        1.36550
C         -0.66084       -0.52464        0.00594
C         -0.76434       -1.63122       -1.04304
C         -1.17612        0.83784       -0.53344
O         -0.79218        1.85454        0.39671
C          0.17716        1.41632       -0.57185
C          0.76082        0.13161       -0.00987
C          1.95482       -0.09049        0.79940
O          1.88285       -0.51623       -0.57564
H         -0.63576       -1.78106        1.77709
H         -1.16057       -0.11093        2.07218
H         -2.25280       -1.26720        1.28375
H         -1.80379       -1.95856       -1.15322
H         -0.40418       -1.29516       -2.02022
H         -0.16178       -2.49596       -0.75105
H         -2.03940        1.03019       -1.16125
H          0.62793        2.15870       -1.21990
H          2.64018        0.73199        0.99795
H          1.97034       -0.89744        1.53031
