19
dsC7O2H10nsd_1752.xyz
O         -1.71965       -1.20318       -0.93740
C         -0.92617       -0.32179       -0.22965
C         -1.13802        0.45549        1.07406
C         -0.41964        1.66994        0.49688
C         -0.10082        0.84316       -0.80463
O          1.26147        0.59750       -1.08822
C          1.82515       -0.51638       -0.40147
C          1.30683       -0.68029        1.03455
C         -0.21804       -0.76151        1.00890
H         -2.38308       -0.69654       -1.41919
H         -1.99534        0.46378        1.73555
H         -1.09040        2.50833        0.29139
H          0.45728        2.04241        1.03336
H         -0.53053        1.29897       -1.70149
H          1.60306       -1.44100       -0.95665
H          2.90825       -0.36265       -0.42380
H          1.72957       -1.59989        1.45176
H          1.65924        0.14278        1.66608
H         -0.66836       -1.64240        1.45601
