19
dsC7O2H10nsd_3085.xyz
O          2.45067       -0.56901       -0.61122
C          1.06428       -0.33256       -0.61405
C          0.66964        1.06557       -0.09525
C         -0.77384        1.46499       -0.43287
C         -1.76304        0.38162        0.00234
C         -1.87485       -0.94966       -0.69931
C         -1.14720       -0.85571        0.62285
C          0.36334       -0.77900        0.69267
O          0.72483        0.53112        1.26674
H          2.78102       -0.25848        0.24132
H          0.69462       -0.67460       -1.58068
H          1.38491        1.87880       -0.25068
H         -1.00182        2.38942        0.10803
H         -0.85506        1.69417       -1.50328
H         -2.67670        0.75333        0.45311
H         -2.84625       -1.43254       -0.69333
H         -1.31203       -1.12266       -1.60882
H         -1.62831       -1.29072        1.49272
H          0.82563       -1.60509        1.23917
