19
dsC7O2H10nsd_3042.xyz
C          0.41603        2.13019       -0.30754
C          0.91103        0.72786       -0.61747
C          1.88149       -0.03906        0.34622
C          1.48090       -1.34561       -0.40309
C          0.17940       -0.56767       -0.13717
C          0.68129       -0.30736        1.30642
O         -1.07591       -1.07455       -0.55352
C         -2.18571       -0.43222       -0.15647
O         -2.24096        0.56495        0.50799
H         -0.42366        2.39162       -0.95843
H          0.07545        2.25391        0.72111
H          1.21718        2.85467       -0.49267
H          1.22383        0.66185       -1.66611
H          2.88629        0.26422        0.62951
H          1.79688       -1.43333       -1.44541
H          1.60630       -2.28094        0.14665
H          0.25469        0.53602        1.84381
H          0.77055       -1.18905        1.94577
H         -3.05917       -0.97894       -0.54534
