19
dsC7O2H10nsd_0004.xyz
C         -2.40084       -0.99615        0.08354
C         -1.46067        0.18290        0.34301
O         -1.82396        1.32346       -0.44132
C         -0.00940       -0.16420        0.14242
C          1.12536        0.59576        0.06340
C          1.24350        2.08623        0.17681
C          2.20402       -0.33525       -0.12677
C          1.64996       -1.57297       -0.14509
O          0.30524       -1.49121        0.01433
H         -2.19295       -1.82668        0.76303
H         -3.43209       -0.66548        0.22737
H         -2.29028       -1.36662       -0.94082
H         -1.61177        0.52650        1.37470
H         -1.57783        1.13030       -1.35339
H          1.83877        2.49907       -0.64552
H          0.25953        2.55681        0.15447
H          1.74490        2.37569        1.10820
H          3.25161       -0.09786       -0.23508
H          2.04832       -2.56760       -0.26108
