19
dsC7O2H10nsd_4035.xyz
O         -2.27407        0.99807       -0.15416
C         -1.52438        0.00342        0.51361
C         -1.25271       -1.27314       -0.37736
C          0.09974       -0.63556       -0.85539
C          1.51900       -0.78615       -0.27571
C          0.92953       -0.70410        1.13463
C         -0.02955        0.30510        0.39095
C          0.93731        1.42155        0.06277
O          2.01416        0.57682       -0.46649
H         -3.17565        0.67532       -0.25411
H         -1.90803       -0.17406        1.52867
H         -1.18276       -2.21042        0.17780
H         -1.97842       -1.39873       -1.18425
H          0.04914       -0.20356       -1.85533
H          2.30009       -1.47210       -0.60471
H          0.43302       -1.60797        1.48324
H          1.57511       -0.29424        1.91393
H          0.57788        2.10087       -0.71483
H          1.31528        1.99905        0.91376
