19
dsC7O2H10nsd_1105.xyz
C         -2.74003       -0.90971       -0.47534
C         -1.58475       -0.08739        0.05390
O         -1.78002        0.94249        0.68881
C         -0.22131       -0.57206       -0.24744
C          0.79520       -0.48551        0.90952
C          2.10592       -1.11973        0.43338
C          2.18354       -0.05387       -0.71388
C          0.86487        0.52142       -0.21310
O          0.58517        1.85413       -0.28566
H         -2.68175       -0.97840       -1.56774
H         -2.68674       -1.93397       -0.08986
H         -3.68640       -0.45191       -0.18586
H         -0.15230       -1.41278       -0.93564
H          0.43917       -0.38815        1.92784
H          2.91566       -1.00774        1.15712
H          2.04962       -2.16884        0.12597
H          3.00591        0.64917       -0.56676
H          2.20116       -0.41458       -1.74625
H         -0.26623        1.97544        0.17373
