18
dsC7O2H10nsd_5531.xyz
O         -2.89598       -0.77651        0.16847
C         -2.03685        0.15195       -0.48219
C         -0.57311       -0.25974       -0.37940
O          0.11374        0.06765        0.97245
C          0.17963        1.47137        0.52837
C          0.44183        0.84055       -0.78137
C          1.84198        0.23747       -0.55131
C          2.00025       -1.24615       -0.33346
H          1.58527       -0.36914        0.82096
H         -2.77634       -0.67154        1.11725
H         -2.34131        0.14350       -1.53487
H         -2.17128        1.17059       -0.09984
H         -0.46179       -1.26344       -0.79082
H         -0.36502       -0.06242        1.94443
H          0.29333        1.51221       -1.62734
H          2.70777        0.85419       -0.75870
H          1.32330       -1.96470       -0.77832
H          3.02707       -1.59910       -0.29724
