19
dsC7O2H10nsd_1589.xyz
C          2.10310       -0.73594       -0.44074
C          0.69368       -0.44470        0.04875
O          0.68552       -0.75197        1.45400
C         -0.36449       -1.27983       -0.69283
C         -1.78416       -1.00833       -0.17721
C         -2.05518        0.45731        0.01050
C         -1.09213        1.38925        0.04723
C          0.34572        1.05645       -0.08803
O          1.18837        1.91613       -0.23680
H          2.17700       -0.59087       -1.52190
H          2.81275       -0.06428        0.04384
H          2.36653       -1.77032       -0.20306
H         -0.10088       -0.36188        1.85144
H         -0.31631       -1.03390       -1.76105
H         -0.11787       -2.34157       -0.59089
H         -2.52986       -1.43435       -0.85853
H         -1.94586       -1.52474        0.78052
H         -3.09540        0.75816        0.12002
H         -1.32047        2.44525        0.15596
