19
dsC7O2H10nsd_3991.xyz
C         -2.93723        1.17864       -0.18543
C         -1.83213        0.38512        0.47897
O         -1.96340       -1.04682        0.19151
C         -0.73714       -1.02545       -0.53197
C          0.41622       -0.67158        0.35976
C          1.81691       -0.78554       -0.22008
C          2.74365        0.24743        0.38914
O          3.34180        1.08647       -0.23261
C         -0.46818        0.42510       -0.21161
H         -2.80539        2.24919        0.00710
H         -2.93643        1.01430       -1.26687
H         -3.91023        0.87455        0.21155
H         -1.82022        0.55948        1.56279
H         -0.66266       -1.61309       -1.44056
H          0.32077       -0.91644        1.41662
H          2.22201       -1.78403       -0.00403
H          1.81373       -0.64418       -1.30544
H          2.82598        0.18907        1.49994
H         -0.08748        1.23169       -0.82498
