19
dsC7O2H10nsd_1736.xyz
C         -0.01088        2.24671       -0.62551
C         -0.24814        0.87671       -0.06740
C         -0.75093        0.31753        1.24476
O          0.30221       -0.63208        1.38644
C          0.73650       -0.33356        0.01185
C          2.22564       -0.14153       -0.09480
C          0.07709       -1.39509       -0.86436
O         -1.32720       -1.22146       -0.64582
C         -1.49714        0.04441       -0.05214
H          0.87756        2.71549       -0.18781
H          0.12333        2.21895       -1.71335
H         -0.86410        2.90074       -0.41897
H         -1.15576        0.77556        2.14114
H          2.56004        0.64962        0.58114
H          2.74641       -1.06454        0.17931
H          2.51254        0.12558       -1.11698
H          0.32354       -1.25719       -1.92952
H          0.35958       -2.40623       -0.55534
H         -2.47607        0.47931       -0.21896
