19
dsC7O2H10nsd_0633.xyz
C          2.15546       -0.69381        0.29990
C          0.89374       -0.47769        1.13379
C         -0.06505        0.15360        0.09746
C          0.93045        0.87382       -0.86060
O          2.24782        0.47728       -0.50344
O         -0.75891       -0.88172       -0.62348
C         -2.16799       -0.74680       -0.46807
C         -2.35389        0.50602        0.33981
C         -1.16691        1.00786        0.65731
H          3.07574       -0.77126        0.88478
H          2.05624       -1.59578       -0.32402
H          0.46737       -1.38859        1.55734
H          1.09752        0.23357        1.94123
H          0.68574        0.57636       -1.88842
H          0.87153        1.96519       -0.78434
H         -2.64656       -0.68949       -1.45760
H         -2.58238       -1.63310        0.03910
H         -3.32434        0.90211        0.61007
H         -0.96702        1.89844        1.23972
