19
dsC7O2H10nsd_3055.xyz
O         -2.67704        0.63095       -0.14789
C         -1.47857        0.07672       -0.59169
C         -0.88206       -1.25053        0.03967
C         -0.46094       -0.40125        1.26363
C         -0.08860        0.46725        0.01428
C          1.06552        1.43019       -0.02380
O          2.21193        0.56442        0.11422
C          1.88684       -0.82597       -0.15064
C          0.44896       -0.82263       -0.65555
H         -2.69213        0.64034        0.81457
H         -1.52881        0.08805       -1.68328
H         -1.35018       -2.23585        0.04043
H         -1.25109       -0.02390        1.92041
H          0.35933       -0.77732        1.87399
H          1.10955        1.97877       -0.97606
H          1.09281        2.15172        0.79902
H          2.58080       -1.19951       -0.91087
H          2.04987       -1.40522        0.76518
H          0.40381       -0.82270       -1.74938
