19
dsC7O2H10nsd_5200.xyz
C         -2.94913       -0.58292       -0.18522
C         -1.45876       -0.75664        0.06864
C         -0.73136        0.25888        0.98431
C         -0.58025        1.30160       -0.17142
O          0.85503        1.48781        0.01310
C          0.62613        0.05249        0.23996
C          1.84183       -0.77009        0.53367
O          2.77684       -0.67952       -0.52532
C         -0.45027       -0.07639       -0.88865
H         -3.20397        0.45906       -0.40627
H         -3.27662       -1.19256       -1.03434
H         -3.53591       -0.89099        0.68702
H         -1.22257       -1.80373        0.29092
H         -0.86571        0.47552        2.04483
H         -1.18233        2.17464       -0.41731
H          2.27656       -0.43757        1.49005
H          1.56754       -1.82523        0.63909
H          2.85841        0.25860       -0.73559
H         -0.25955       -0.24567       -1.94835
