19
dsC7O2H10nsd_3299.xyz
O          3.06998       -0.33148        0.11602
C          1.73447       -0.00776        0.37602
C          0.87898        0.71330       -0.63206
C         -0.24920        1.58727       -0.08051
C         -1.22800        0.62673        0.63689
C         -2.41971        0.10183       -0.19555
O         -1.82068       -1.20062       -0.34600
C         -0.69394       -0.82702        0.48060
C          0.60564       -0.74874       -0.28328
H          3.12706       -0.72340       -0.76102
H          1.63382        0.27139        1.42261
H          1.33968        0.98051       -1.57780
H          0.13407        2.35129        0.60530
H         -0.75477        2.12014       -0.89297
H         -1.48556        0.95078        1.64536
H         -3.37620        0.04753        0.33959
H         -2.58112        0.59771       -1.16159
H         -0.64107       -1.45589        1.37793
H          0.84019       -1.55690       -0.97028
