19
dsC7O2H10nsd_2531.xyz
C         -2.93602       -0.85390        0.23768
C         -1.57236       -0.26567        0.07916
C         -0.40994       -0.69761        0.56348
C          0.71464        0.23042        0.16330
C          1.48872        0.83418        1.33450
O          0.06802        1.25188       -0.60613
C         -1.33302        1.00884       -0.69024
C          1.65112       -0.53573       -0.78436
O          2.64583       -1.11963       -0.44461
H         -3.61595       -0.14634        0.72830
H         -3.37968       -1.08820       -0.73800
H         -2.91195       -1.77133        0.83028
H         -0.24190       -1.58465        1.16106
H          2.17273        1.60597        0.97082
H          0.79938        1.28308        2.05354
H          2.07939        0.05930        1.82883
H         -1.89103        1.85892       -0.26556
H         -1.63712        0.92125       -1.74504
H          1.29657       -0.51922       -1.83952
