19
dsC7O2H10nsd_3972.xyz
C          2.64363       -0.43216        0.08994
C          1.20903       -0.46213        0.60823
C          0.31910       -1.55520       -0.05987
C         -0.51757       -0.47123       -0.82001
C         -1.76296       -0.08672       -0.02916
O         -2.91249       -0.41936       -0.07662
C         -0.99466        0.93639        0.82985
C          0.28390        0.63488        0.00665
O          0.83284        1.80201       -0.51959
H          3.19842       -1.30806        0.44078
H          2.67969       -0.45142       -1.00750
H          3.17435        0.46167        0.43359
H          1.22052       -0.47850        1.70331
H          0.87174       -2.21273       -0.73476
H         -0.25918       -2.18070        0.62409
H         -0.58333       -0.55190       -1.90535
H         -1.35049        1.95550        0.64936
H         -0.96506        0.75491        1.90783
H          1.56784        1.56705       -1.09552
