19
dsC7O2H10nsd_5841.xyz
C          0.17437        2.45433       -0.04007
O          1.22104        1.51453       -0.19474
C          0.95754        0.27852        0.39646
C          2.11588       -0.71905        0.25454
O          1.24560       -1.70898       -0.33716
C          0.14884       -0.77341       -0.41508
C         -1.12308       -1.37529        0.18681
C         -2.27059       -0.48364        0.08639
C         -3.19927        0.27390       -0.01115
H         -0.01691        2.66822        1.02261
H          0.49485        3.37318       -0.53606
H         -0.76290        2.10444       -0.49330
H          0.58564        0.40081        1.42487
H          2.88252       -0.36646       -0.44563
H          2.58897       -1.08163        1.17290
H         -0.03100       -0.44497       -1.44745
H         -1.33116       -2.31851       -0.33383
H         -0.93136       -1.63724        1.23485
H         -4.03386        0.92555       -0.09112
