19
dsC7O2H10nsd_0025.xyz
C          2.95651       -0.83588        0.08692
C          1.63307       -0.16232        0.01799
C          1.23118        1.12831        0.16678
C         -0.19464        1.14922       -0.01794
C         -1.07824        2.35713        0.05145
C         -0.55337       -0.14439       -0.27117
C         -1.85697       -0.81776       -0.51142
O         -2.31271       -1.60241        0.59015
O          0.55720       -0.94953       -0.24985
H          3.73566       -0.10408        0.31080
H          2.97336       -1.60637        0.86603
H          3.20686       -1.32607       -0.86080
H          1.86872        1.97294        0.38146
H         -1.01430        2.84239        1.03231
H         -0.78748        3.10649       -0.69373
H         -2.12720        2.10553       -0.12554
H         -2.59834       -0.05670       -0.79523
H         -1.77243       -1.52015       -1.34707
H         -2.26600       -1.04439        1.37367
