19
dsC7O2H10nsd_3850.xyz
C          0.09689        1.87614       -0.69018
C         -0.24366        0.65284        0.14957
C          0.85377        0.30495        1.23544
C          1.40281       -0.81916        0.26850
O          2.44336       -0.38476       -0.58746
C          0.04053       -0.72203       -0.38310
C         -1.07667       -1.43368       -0.45998
C         -2.23303       -0.51127       -0.10572
O         -1.62810        0.65018        0.48830
H         -0.54092        1.91919       -1.57805
H         -0.06840        2.78666       -0.10461
H          1.14143        1.84326       -1.00821
H          1.56735        1.09420        1.49250
H          0.40214       -0.11655        2.13504
H          1.64549       -1.78422        0.72939
H          3.22786       -0.24818       -0.04582
H         -1.18746       -2.50475       -0.57611
H         -2.85352       -0.21974       -0.96848
H         -2.89987       -0.97998        0.63047
