19
dsC7O2H10nsd_0621.xyz
C         -1.47191        0.04671       -0.99986
O         -1.26441       -1.17943       -0.29669
C         -0.35853       -0.96335        0.78567
C          1.06223       -1.30852        0.33186
O          1.45452       -0.48600       -0.75296
C          1.56682        0.88177       -0.40493
C          0.35750        1.43651        0.32297
C         -1.08755        1.17346       -0.04537
C         -0.48456        0.51381        1.16991
H         -0.88561        0.05409       -1.92675
H         -2.53418        0.11087       -1.26277
H         -0.65380       -1.62224        1.60995
H          1.76562       -1.21645        1.17819
H          1.09563       -2.33494       -0.04264
H          2.45239        1.03369        0.23768
H          1.74577        1.41587       -1.34447
H          0.54035        2.42535        0.73755
H         -1.78240        1.99776        0.06757
H         -0.76859        0.77703        2.18140
