19
dsC7O2H10nsd_4167.xyz
C         -2.66091       -0.53519       -0.34273
C         -1.18108       -0.65741       -0.02494
O         -0.86084        0.00970        1.23184
C          0.22797        0.86701        0.86006
C         -0.27502        1.53235       -0.44843
C         -0.18324        0.05698       -0.96288
C          1.06549       -0.02417       -0.06403
C          2.48607       -0.07514       -0.37175
O          1.79937       -1.17029        0.27568
H         -2.90757       -1.12160       -1.23435
H         -3.25220       -0.92214        0.49249
H         -2.95930        0.50237       -0.51531
H         -0.91123       -1.71732        0.07039
H          0.60561        1.40202        1.72890
H         -1.25655        2.00403       -0.40240
H          0.45831        2.18835       -0.91986
H         -0.18181       -0.21644       -2.01653
H          2.81710       -0.27383       -1.39020
H          3.20369        0.45273        0.25482
