19
dsC7O2H10nsd_5549.xyz
O          2.50911       -0.60617        0.20017
C          1.34712       -1.31157       -0.19028
C          0.09276       -0.75713        0.48783
C         -1.23560       -1.21055       -0.15276
C         -2.38673       -0.43486        0.41296
C         -1.52073        0.21840       -0.63743
C         -0.23636        0.67683        0.01137
C          0.16889        1.98548        0.52320
O          0.73874        1.44971       -0.69214
H          2.39923        0.28217       -0.16425
H          1.21094       -1.29308       -1.28325
H          1.49360       -2.35725        0.10223
H          0.17023       -0.89230        1.57231
H         -1.37286       -2.14121       -0.68972
H         -3.37194       -0.73463        0.07016
H         -2.36216       -0.08301        1.44177
H         -1.90803        0.57206       -1.58459
H         -0.47664        2.85000        0.37887
H          0.85866        2.04927        1.36288
