19
dsC7O2H10nsd_3724.xyz
O         -2.69242       -0.72377        0.11482
C         -1.88759        0.37192        0.41016
C         -1.30841        1.21001       -0.72738
C         -0.44275        0.26223        0.04398
O         -0.03743       -0.99491       -0.52999
C          1.15642       -1.00738        0.30061
C          2.38920       -0.44802       -0.43779
C          2.03742        0.98495        0.07630
C          0.82476        0.40738        0.86272
H         -2.08745       -1.43722       -0.13786
H         -2.17183        0.88139        1.32815
H         -1.58070        0.91432       -1.73543
H         -1.17690        2.27678       -0.57249
H          1.23907       -1.92861        0.88099
H          3.33572       -0.82851       -0.04447
H          2.36449       -0.60451       -1.51804
H          2.80642        1.41711        0.71981
H          1.77451        1.71841       -0.68963
H          0.72128        0.65374        1.91876
