19
dsC7O2H10nsd_1539.xyz
C         -1.47467        1.37767       -0.76692
C         -1.17125        0.06457       -0.06578
C         -2.44365       -0.66788        0.34562
O         -0.35924       -0.81558       -0.91997
C          0.60306       -1.03714        0.13004
C         -0.08431        0.02572        1.04382
C          1.12811        0.98181        0.88132
C          1.79925       -0.06623       -0.03618
O          2.83692       -0.11437       -0.62509
H         -2.12284        1.19529       -1.63013
H         -1.99374        2.06681       -0.09242
H         -0.56533        1.86028       -1.13084
H         -2.20683       -1.61065        0.84731
H         -3.03916       -0.05340        1.02976
H         -3.05149       -0.89288       -0.53584
H          0.77919       -2.09349        0.35057
H         -0.42246       -0.17579        2.05835
H          0.96130        1.97704        0.46374
H          1.70071        1.09526        1.80850
