19
dsC7O2H10nsd_3124.xyz
C         -2.33293       -1.33043        0.11210
C         -0.97392       -0.73062       -0.04268
C          0.21066       -1.24510        0.29900
C          1.33462       -0.27963        0.07063
O          2.58639       -0.74308       -0.32635
C          1.29687        0.95582        0.91984
C          0.67475        0.97219       -0.47341
C         -0.81693        0.68600       -0.60913
O         -1.67951        1.63323        0.01430
H         -2.82228       -1.44871       -0.86367
H         -2.29609       -2.30847        0.59862
H         -2.97817       -0.66680        0.69844
H          0.37855       -2.22301        0.73907
H          2.47723       -1.19991       -1.16827
H          0.67439        0.95587        1.80999
H          2.22682        1.50690        1.01253
H          1.17104        1.58156       -1.21849
H         -1.11940        0.70805       -1.66472
H         -1.32579        1.80386        0.89473
