19
dsC7O2H10nsd_1687.xyz
C          0.89240        1.82502       -0.61696
C          0.13059        0.60560       -0.13093
C          0.61538       -0.71624       -0.69232
C          1.97559       -1.14597       -0.18845
O          2.63834       -0.56229        0.63145
C         -0.42528        0.62579        1.24764
C         -1.39192        0.81661        0.08285
C         -2.37984       -0.23882       -0.21632
O         -2.25050       -1.41718        0.04086
H          0.83981        1.91613       -1.70785
H          0.49059        2.74515       -0.18259
H          1.94383        1.74529       -0.32745
H         -0.08345       -1.52808       -0.45252
H          0.66628       -0.69430       -1.79140
H          2.33941       -2.09620       -0.64327
H         -0.52260       -0.31980        1.77002
H         -0.23413        1.48670        1.87818
H         -1.74078        1.82466       -0.11598
H         -3.30322        0.12422       -0.71877
