19
dsC7O2H10nsd_5459.xyz
C         -1.58171        1.94293       -0.23569
C         -1.04570        0.56944       -0.00043
C         -1.49294       -0.60665        0.79699
O         -1.42953       -1.54993       -0.27469
C         -0.53444       -0.61010       -0.92925
C          0.76571       -0.68860       -0.07780
C          1.90596        0.18253       -0.58281
O          2.90626        0.40697        0.40170
C         -0.07710       -0.03914        1.01922
H         -2.46276        1.92277       -0.88706
H         -1.87873        2.40322        0.71291
H         -0.83525        2.59878       -0.69772
H         -2.24475       -0.72996        1.56592
H         -0.54268       -0.68127       -2.01628
H          1.11414       -1.71510        0.10204
H          2.33898       -0.26266       -1.49360
H          1.53300        1.17703       -0.85164
H          3.27212       -0.44943        0.64602
H          0.25333        0.37782        1.96195
