19
dsC7O2H10nsd_4269.xyz
C          2.49758       -0.00159       -0.18298
C          1.13457       -0.69503       -0.16909
C          0.46738       -0.71077        1.26255
C         -0.86829        0.01336        1.03071
O         -1.72094       -0.82854        0.24433
C         -1.18132       -0.84644       -1.10378
C          0.06958        0.04083       -1.03519
C         -0.43640        1.06218       -0.00641
O         -0.45358        2.25907       -0.00002
H          3.19662       -0.50747        0.49105
H          2.93554       -0.00386       -1.18650
H          2.41529        1.04136        0.14324
H          1.24970       -1.71845       -0.54089
H          0.29325       -1.72260        1.63535
H          1.08675       -0.17742        1.99181
H         -1.41070        0.36283        1.90661
H         -0.95295       -1.88138       -1.38653
H         -1.93373       -0.45125       -1.79716
H          0.41779        0.43875       -1.98638
