19
dsC7O2H10nsd_1380.xyz
C          0.52406        2.37721       -0.09992
C          0.59044        0.88155        0.21608
C          1.79407        0.21030       -0.45798
C          1.98044       -1.23126       -0.03196
O          3.04135       -1.71371        0.27448
O         -0.55655        0.17871       -0.25596
C         -1.72169        0.34860        0.53319
C         -2.76601       -0.55081        0.06106
C         -3.64374       -1.28141       -0.30945
H          0.43972        2.53199       -1.17999
H         -0.33309        2.85377        0.38428
H          1.42703        2.88267        0.25577
H          0.66655        0.74820        1.30914
H          1.61463        0.22145       -1.54227
H          2.71871        0.75768       -0.25755
H          1.04637       -1.83193       -0.02343
H         -1.50012        0.13613        1.59273
H         -2.08736        1.38603        0.48727
H         -4.41620       -1.93095       -0.64014
