19
dsC7O2H10nsd_4492.xyz
O          1.79715       -1.40913       -0.55468
C          1.37940       -0.60088        0.52972
C          1.74093        0.94985        0.32598
O          0.58239        1.67096       -0.16272
C         -0.25738        0.58892       -0.56244
C         -1.75501        0.33452       -0.71625
C         -2.51732       -0.02233        0.52879
C         -1.48878       -1.00621        0.04363
C         -0.12774       -0.42730        0.54092
H          2.75441       -1.34446       -0.62940
H          1.80642       -0.96827        1.47255
H          2.06129        1.41759        1.26271
H          2.56028        1.01818       -0.40305
H          0.17596        0.15055       -1.47289
H         -2.27424        0.46204       -1.65856
H         -2.36472        0.50387        1.46799
H         -3.55447       -0.28435        0.34083
H         -1.71757       -2.01046       -0.28520
H         -0.32817        0.06133        1.50217
