19
dsC7O2H10nsd_0275.xyz
C          2.50758       -0.29539        0.17256
C          1.50997       -0.34016       -1.01848
C          0.40343        0.16612       -0.06522
C          1.51259        0.62809        0.92837
O         -0.45171        1.15186       -0.62759
C         -1.75678        1.08445       -0.05998
C         -1.87471       -0.30801        0.51645
O         -1.51398       -1.32812       -0.42122
C         -0.52710       -0.87734        0.51424
H          2.61810       -1.26914        0.65741
H          3.50309        0.10481       -0.02627
H          1.73059        0.42675       -1.76493
H          1.33344       -1.29148       -1.52473
H          1.73082        1.68637        0.76572
H          1.35184        0.45652        1.99681
H         -1.89186        1.83044        0.73928
H         -2.48293        1.28933       -0.85391
H         -2.64553       -0.56035        1.23931
H         -0.17196       -1.60975        1.23409
