19
dsC7O2H10nsd_0081.xyz
C          3.48520        0.08644       -0.02653
C          2.29370        0.09045        0.12632
C          0.84376        0.03692        0.30371
C          0.30566       -1.35405       -0.09638
O         -1.04410       -1.55200        0.24640
C         -1.97866       -0.68099       -0.37775
C         -2.07858        0.66800        0.34296
C         -0.92514        1.64644        0.02164
O          0.24035        1.03730       -0.51180
H          4.53917        0.09996       -0.15709
H          0.60372        0.21334        1.36369
H          0.46694       -1.46890       -1.17924
H          0.87146       -2.13079        0.42648
H         -1.73307       -0.54697       -1.44107
H         -2.94152       -1.19724       -0.31305
H         -3.03015        1.14816        0.08486
H         -2.11862        0.45333        1.41621
H         -1.23244        2.35078       -0.75682
H         -0.67115        2.23669        0.91543
