19
dsC7O2H10nsd_0215.xyz
C         -2.18992       -0.29258        0.24998
C         -1.29270        0.54176       -0.63145
O         -0.45950        1.52525       -0.06418
C          0.80412        1.05440        0.40119
C          1.64661        0.37870       -0.70339
O          1.40455       -1.03203       -0.59531
C          0.31823       -1.19744        0.32897
C          0.61037       -0.11646        1.37591
C         -0.97839       -0.91537       -0.41432
H         -2.16367       -0.10200        1.31621
H         -3.16865       -0.56461       -0.13123
H         -1.68114        0.86052       -1.59439
H          1.29527        1.92999        0.82837
H          1.36032        0.75190       -1.69359
H          2.71813        0.55913       -0.55736
H          0.36612       -2.22245        0.70361
H         -0.17742        0.07094        2.10558
H          1.53823       -0.35674        1.90261
H         -1.15751       -1.59054       -1.24528
