19
dsC7O2H10nsd_4148.xyz
C         -1.32792        1.87960        0.45907
C         -0.79747        0.75026       -0.39891
O         -1.84176       -0.16055       -0.86757
C         -1.09131       -1.28368       -0.41493
C         -0.93259       -1.26735        1.07034
C         -0.01060       -0.42107        0.20789
C          1.46307       -0.55639        0.21448
C          2.36883        0.58660        0.40666
O          2.17616        0.01713       -0.88932
H         -0.51503        2.55557        0.74557
H         -2.06508        2.46030       -0.10448
H         -1.80916        1.50770        1.36741
H         -0.25637        1.13983       -1.26910
H         -1.04679       -2.16134       -1.04939
H         -1.69640       -0.81284        1.69416
H         -0.45555       -2.14501        1.49775
H          1.82994       -1.53995        0.51331
H          1.95455        1.58452        0.54438
H          3.35256        0.43080        0.84784
