19
dsC7O2H10nsd_3859.xyz
O         -2.79341        0.75760        0.00000
C         -2.00319       -0.41548        0.00000
C         -0.89599       -0.48743       -1.08905
C          0.18630       -0.19028        0.00000
C         -0.89599       -0.48743        1.08905
O          1.30166       -1.07502        0.00000
C          2.52866       -0.35143        0.00000
C          2.12453        1.09495        0.00000
C          0.79974        1.17971        0.00000
H         -2.21108        1.52419        0.00000
H         -2.72118       -1.23758        0.00000
H         -0.75765       -1.49693       -1.48397
H         -0.98921        0.21579       -1.92167
H         -0.75765       -1.49693        1.48397
H         -0.98921        0.21579        1.92167
H          3.12467       -0.62210        0.88562
H          3.12467       -0.62210       -0.88562
H          2.83339        1.91298        0.00000
H          0.21291        2.09057        0.00000
