19
dsC7O2H10nsd_3084.xyz
O          1.82062       -1.28118       -0.39072
C          1.45195        0.06385       -0.23805
C          0.71587        0.57225        1.04395
C          0.12870        1.68527        0.12984
C          0.27013        0.68724       -1.05158
C         -0.88706       -0.30595       -1.02995
O         -2.07425        0.07804       -0.32925
C         -1.21475       -0.88497        0.28986
C         -0.37342       -0.42617        1.47509
H          1.02507       -1.82193       -0.35746
H          2.36542        0.64164       -0.39925
H          1.33072        0.87052        1.89620
H         -0.87555        2.04434        0.34836
H          0.81605        2.52729        0.02231
H          0.46478        1.07230       -2.05437
H         -1.07082       -0.87973       -1.93680
H         -1.65558       -1.87967        0.35646
H         -1.01887        0.01052        2.24625
H          0.09934       -1.30930        1.92298
