19
dsC7O2H10nsd_1196.xyz
C         -1.43603        1.92392       -0.26536
C         -0.87027        0.49139       -0.34153
C         -1.88462       -0.50874       -0.01867
C         -2.72990       -1.31051        0.27710
C          0.34521        0.35290        0.59319
O          1.39388        1.28316        0.23882
C          2.27921        0.22450       -0.18489
C          1.31164       -0.84857        0.36257
O          0.94434       -1.93037       -0.44214
H         -0.64250        2.64142       -0.48567
H         -2.25011        2.05509       -0.98228
H         -1.82723        2.12764        0.73584
H         -0.52464        0.32843       -1.37357
H         -3.46754       -2.03239        0.52683
H          0.01788        0.49981        1.62974
H          2.40192        0.19437       -1.27729
H          3.26662        0.29946        0.28307
H          1.65244       -1.28362        1.30402
H          0.57592       -1.60183       -1.26870
