19
dsC7O2H10nsd_0869.xyz
O         -3.12225       -0.59052       -0.10963
C         -2.08352       -0.02182       -0.33017
C         -0.82017       -0.18879        0.48383
C         -0.21669        1.19143        0.84240
O          0.57716        1.57054       -0.27120
C          1.17954        0.40371       -0.79968
C          2.38141       -0.18165       -0.00117
C          1.51297       -1.40437        0.41463
C          0.30293       -0.81670       -0.37260
H         -1.98561        0.68987       -1.18252
H         -1.05704       -0.78854        1.36621
H         -0.96507        1.97424        0.99901
H          0.38516        1.10874        1.75996
H          1.35476        0.57907       -1.86281
H          3.24917       -0.42522       -0.61814
H          2.71191        0.46273        0.81717
H          1.86527       -2.36156        0.02531
H          1.34664       -1.51654        1.48935
H         -0.08328       -1.45389       -1.17042
