19
dsC7O2H10nsd_2870.xyz
O          1.52516        1.58767       -0.10872
C          0.53430        0.73334       -0.66183
C         -0.91535        1.11115       -0.42712
C         -1.69500       -0.19432       -0.47393
C         -0.69037       -1.31773       -0.72861
C          0.49040       -0.66661        0.01467
O          1.69021       -1.37821       -0.00203
C         -0.14131       -0.33837        1.39634
C         -1.34603        0.42697        0.86610
H          1.17946        1.95179        0.71285
H          0.79072        0.63765       -1.72213
H         -1.34004        2.04950       -0.75995
H         -2.71306       -0.22741       -0.83865
H         -0.98844       -2.27475       -0.28933
H         -0.46944       -1.47267       -1.78926
H          2.38680       -0.73386        0.17918
H         -0.40724       -1.24836        1.94238
H          0.52351        0.25848        2.03085
H         -2.10495        0.85739        1.50640
