19
dsC7O2H10nsd_3760.xyz
C          2.86823       -1.06144       -0.52684
C          1.96593        0.10718       -0.20861
C          1.61370        0.45749        1.19372
C          0.54459       -0.15218        0.29015
C         -0.51962        0.75040       -0.21194
O         -0.33218        1.92359       -0.47121
C         -1.89917        0.17369       -0.39863
C         -2.55374       -0.58316        0.68820
O         -2.04469       -1.24781       -0.45852
H          2.73366       -1.87400        0.19474
H          2.66598       -1.46237       -1.52542
H          3.92073       -0.75888       -0.49384
H          2.02578        0.95278       -0.88810
H          1.98575       -0.17040        1.99664
H          1.47832        1.50489        1.43882
H          0.26171       -1.18448        0.45384
H         -2.52381        0.74386       -1.08359
H         -2.01433       -0.76495        1.61636
H         -3.63836       -0.54452        0.77211
