19
dsC7O2H10nsd_1219.xyz
C          0.29752        1.89084       -0.82066
C         -0.30280        0.75703        0.00847
C         -1.57109        1.21278        0.73474
C          0.72795        0.19112        1.01984
C          1.93616       -0.34351        0.40629
C          2.92960       -0.79129       -0.10089
O         -0.63552       -0.25498       -0.99985
C         -1.15952       -1.43386       -0.65552
O         -1.43501       -1.82555        0.44772
H         -0.42801        2.24503       -1.55752
H          0.56947        2.72797       -0.17114
H          1.19268        1.54938       -1.34458
H         -2.31391        1.55798        0.01001
H         -2.00277        0.40416        1.32490
H         -1.33289        2.04849        1.39986
H          0.99124        1.00801        1.70347
H          0.24329       -0.58484        1.61780
H          3.80865       -1.19005       -0.54319
H         -1.31039       -2.02054       -1.57618
