19
dsC7O2H10nsd_5040.xyz
C         -3.04052       -0.28761        0.07364
C         -1.82890        0.32319       -0.64565
C         -0.52818       -0.10904       -0.04372
C          0.14317       -1.49609       -0.09275
C          1.49632       -0.72664       -0.01732
O          2.63800       -1.04328       -0.17559
C          0.77507        0.61600        0.08672
C          1.24756        1.98666       -0.26107
O         -0.12530        0.44456        1.21289
H         -3.02192       -1.38108        0.02417
H         -3.04926        0.00222        1.12826
H         -3.97380        0.05347       -0.38304
H         -1.83762        0.03699       -1.70455
H         -1.88611        1.41654       -0.60720
H         -0.09997       -2.16600        0.73424
H          0.05718       -2.02727       -1.04604
H          0.41021        2.68881       -0.29234
H          1.96588        2.34404        0.48376
H          1.74664        1.98330       -1.23473
