19
dsC7O2H10nsd_2887.xyz
C          2.61456       -0.42116       -0.24485
C          1.14461       -0.41350       -0.63832
C          0.12959       -1.22394        0.21238
C          0.02197       -0.12056        1.30476
O         -1.43286       -0.04283        1.26262
C         -1.05413       -0.26478       -0.13844
C         -2.12303       -0.36472       -1.17704
C          0.22262        0.66108       -0.04553
O          0.33399        2.01149       -0.26730
H          3.09320       -1.36464       -0.52792
H          3.15552        0.38930       -0.74395
H          2.74414       -0.29179        0.83490
H          1.02585       -0.55061       -1.71958
H          0.06007       -2.29750        0.37428
H          0.51755       -0.03411        2.27040
H         -2.81358       -1.18176       -0.94647
H         -2.69629        0.56644       -1.23071
H         -1.68001       -0.55145       -2.16027
H         -0.35274        2.45229        0.24899
