19
dsC7O2H10nsd_1464.xyz
C          1.45431       -0.92046       -1.11668
C          0.66191       -0.41751        0.09586
C          1.50132       -0.50415        1.38632
C         -0.67282       -1.11834        0.27642
O         -1.58133       -0.90644       -0.81121
C         -1.77185       -0.14331        0.38885
C         -1.23298        1.26060        0.27125
C          0.24410        1.06233       -0.11062
O          0.98454        1.92928       -0.49255
H          0.81711       -0.95448       -2.00412
H          2.29088       -0.24569       -1.31694
H          1.84971       -1.92516       -0.93490
H          0.94781       -0.14297        2.25998
H          1.79621       -1.54079        1.58050
H          2.40775        0.09856        1.28514
H         -0.71605       -2.10314        0.73682
H         -2.68699       -0.35206        0.93595
H         -1.74316        1.86480       -0.48396
H         -1.29293        1.80318        1.22319
