19
dsC7O2H10nsd_1494.xyz
C         -1.99218       -0.37774       -0.96320
C         -0.97223        0.08937        0.08393
O         -1.63098        0.33564        1.33967
C         -0.25618        1.33392       -0.38550
C          1.06017        1.52079       -0.35947
C          2.05497        0.50993        0.13721
C          1.44569       -0.84086        0.42594
O          0.80400       -1.50187       -0.67407
C         -0.00756       -1.04028        0.40492
H         -2.70126        0.42590       -1.19368
H         -1.48563       -0.66675       -1.88796
H         -2.55611       -1.23454       -0.58270
H         -2.20748        1.09808        1.22288
H         -0.90240        2.12474       -0.76489
H          1.47165        2.46385       -0.71173
H          2.87021        0.39366       -0.59036
H          2.53235        0.88350        1.05478
H          2.04829       -1.50665        1.04412
H         -0.44984       -1.82280        1.02172
