19
dsC7O2H10nsd_0913.xyz
O         -3.71328       -0.27024       -0.51231
C         -2.65084       -0.39428        0.03952
C         -1.63512        0.71740        0.21902
C         -0.24235        0.28529       -0.19814
C          0.96235        1.00502        0.39348
C          2.27736        0.91366       -0.36538
C          2.41690       -0.60151       -0.64483
O          1.64651       -1.28042        0.35047
C          0.65446       -0.40479        0.80770
H         -2.33459       -1.37442        0.46567
H         -1.98042        1.59678       -0.33403
H         -1.62744        0.98193        1.28716
H         -0.16207       -0.04137       -1.23217
H          0.79263        1.84910        1.05227
H          2.29984        1.49674       -1.29081
H          3.08853        1.27138        0.27703
H          2.03658       -0.84828       -1.64539
H          3.44568       -0.96531       -0.57851
H          0.27883       -0.68592        1.78534
