19
dsC7O2H10nsd_6027.xyz
C          3.43049       -0.11931        0.22577
O          2.15643       -0.48293       -0.25232
C          1.17473        0.49753        0.00877
C         -0.15263        0.00217       -0.53977
C         -0.81696       -1.14887        0.23596
C         -2.16031       -1.41634       -0.32989
C         -2.01883       -0.24194        0.63494
C         -1.33212        0.89516       -0.04939
O         -1.48056        2.08571       -0.03642
H          3.43068        0.02855        1.31744
H          4.11659       -0.93317       -0.02065
H          3.79411        0.80785       -0.24440
H          1.09665        0.68507        1.09396
H          1.43536        1.45623       -0.46684
H         -0.06774       -0.15973       -1.61936
H         -0.28752       -1.83807        0.87922
H         -2.35995       -1.23527       -1.38270
H         -2.71023       -2.25314        0.08834
H         -2.60112       -0.19095        1.54644
