19
dsC7O2H10nsd_0379.xyz
C         -2.27286       -0.41416        0.40053
C         -2.01512        0.77229       -0.52246
C         -0.87895       -0.03733        0.01002
O         -0.18372       -0.90175       -0.89536
C          1.16813       -0.87087       -0.45378
C          1.04787       -0.82213        1.07262
C          0.20063        0.46577        0.96129
C          1.16053        1.32931        0.11853
O          1.75889        0.37327       -0.78551
H         -2.60769       -0.21924        1.41433
H         -2.67883       -1.31285       -0.05042
H         -2.25750        0.64811       -1.57177
H         -2.17395        1.77323       -0.13350
H          1.71947       -1.67069       -0.94388
H          0.50629       -1.67185        1.49065
H          2.00754       -0.68514        1.57445
H         -0.16317        0.92730        1.87824
H          0.64074        2.10196       -0.45723
H          1.94436        1.79964        0.72554
