19
dsC7O2H10nsd_3374.xyz
C          1.35363        2.03454        0.03011
C          0.36062        0.97066       -0.42347
C         -0.98660        0.90432        0.35458
O         -2.08156        0.45325       -0.46214
C         -1.89249       -0.92121       -0.04322
C         -0.68083       -0.54891        0.83085
C          0.63648       -0.47185        0.05973
C          1.91183       -1.12252        0.36679
O          1.12108       -1.51981       -0.76216
H          2.32626        1.89976       -0.45411
H          0.99153        3.03692       -0.22115
H          1.51398        1.99750        1.11354
H          0.18583        1.02721       -1.50178
H         -1.25083        1.74552        1.00088
H         -2.76104       -1.28514        0.51832
H         -1.69094       -1.59588       -0.88266
H         -0.66407       -0.89011        1.86516
H          2.85049       -0.62516        0.12610
H          1.96676       -1.84832        1.17789
