19
dsC7O2H10nsd_0411.xyz
C          2.20115       -0.72863       -0.38451
O          2.08552        0.12629        0.75925
C          0.94173       -0.04709       -0.09291
C          0.41018        1.18337       -0.80927
C         -0.73629        1.66015        0.11336
C         -1.34096        0.37128        0.70106
C         -2.15189       -0.51255       -0.26897
O         -1.05600       -1.44297       -0.41951
C         -0.25096       -0.72718        0.54730
H          2.83972       -0.35393       -1.18365
H          2.30670       -1.79100       -0.16834
H          1.18923        1.93340       -0.96069
H          0.02158        0.89239       -1.79162
H         -0.32339        2.26877        0.92489
H         -1.47900        2.27125       -0.40859
H         -1.78563        0.51123        1.68619
H         -3.03459       -0.99720        0.16605
H         -2.43509       -0.04990       -1.22335
H          0.02663       -1.34768        1.40480
