19
dsC7O2H10nsd_0617.xyz
C         -1.32973       -1.15871       -0.42019
O         -1.52704        0.16674       -0.92517
C         -1.22927        1.06399        0.11257
C          0.21859        1.44017        0.28737
C          1.28167        0.97024       -0.69217
C          1.96162       -0.27394       -0.12181
O          1.05347       -1.34989        0.05745
C         -0.21908       -1.05845        0.64263
C         -0.41535        0.36635        1.16643
H         -2.26158       -1.52706        0.03594
H         -1.04557       -1.81058       -1.24913
H         -2.02054        1.77060        0.34279
H          0.39711        2.39172        0.77892
H          0.82923        0.72710       -1.65929
H          2.02533        1.75571       -0.85647
H          2.73244       -0.65823       -0.79703
H          2.44829       -0.01568        0.83332
H         -0.37093       -1.79739        1.43692
H         -0.55582        0.53099        2.22681
