19
dsC7O2H10nsd_3840.xyz
C          2.38150       -1.17690       -0.12980
C          1.09608       -0.56270        0.41700
C         -0.21779       -1.29237        0.04357
C         -1.28273       -0.20101       -0.03342
C         -2.63720       -0.48431       -0.62005
O         -1.24568        0.64590        1.11854
C         -0.61636        1.12030       -0.09074
C          0.86897        0.87781       -0.07568
O          1.71604        1.64377       -0.46064
H          2.33509       -1.28275       -1.21876
H          3.23588       -0.53633        0.10244
H          2.55923       -2.16670        0.30098
H          1.15949       -0.49768        1.51056
H         -0.12001       -1.77266       -0.93769
H         -0.49483       -2.06968        0.76291
H         -2.54831       -0.81787       -1.65888
H         -3.13928       -1.27696       -0.05437
H         -3.26617        0.40848       -0.58832
H         -1.03879        2.00992       -0.54734
