19
dsC7O2H10nsd_2005.xyz
O          1.58963        1.42894       -0.60173
C          1.13918        0.29261        0.04756
C          2.00510       -0.91550        0.26495
C          0.75363       -1.03710       -0.57820
C         -0.47254       -1.13440        0.33362
C         -1.81205       -0.85354       -0.35096
O         -1.83343        0.53884       -0.62436
C         -1.23223        1.17851        0.49311
C         -0.09202        0.26591        0.96100
H          2.26931        1.84079       -0.05681
H          2.92858       -0.90262       -0.30594
H          2.07448       -1.40555        1.23459
H          0.79106       -1.34319       -1.61690
H         -0.50756       -2.00199        0.99852
H         -1.94176       -1.38190       -1.30044
H         -2.64156       -1.13542        0.31972
H         -0.88309        2.16097        0.16482
H         -1.96366        1.31261        1.30683
H          0.09013        0.33507        2.03784
