19
dsC7O2H10nsd_0843.xyz
O          3.10509        0.20027       -0.22179
C          2.27611       -0.59959        0.13700
C          0.86842       -0.26536        0.53599
C          0.46219        1.22703        0.49495
C         -0.60078        0.92892       -0.60021
C         -2.06926        0.87832       -0.15374
C         -2.18210       -0.50411        0.51000
O         -1.29552       -1.34931       -0.22333
C         -0.18513       -0.57734       -0.60695
H          2.50601       -1.69007        0.15064
H          0.61638       -0.81537        1.44820
H          0.06689        1.62850        1.43141
H          1.28380        1.86040        0.15637
H         -0.46436        1.47607       -1.53356
H         -2.33910        1.69271        0.52438
H         -2.72898        0.92776       -1.02527
H         -1.88564       -0.45905        1.56962
H         -3.17996       -0.94549        0.45577
H          0.23171       -1.01039       -1.51887
