19
dsC7O2H10nsd_1320.xyz
C          3.39510        1.27700        0.06044
C          2.52040        0.04015        0.26031
O          2.79505       -0.95640       -0.72284
C          1.03187        0.36259        0.14225
C          0.14813       -0.88376        0.34823
C         -1.27355       -0.60709        0.22610
C         -2.44745       -0.34119        0.11435
C         -3.85564       -0.07488       -0.00203
O         -4.33179        0.97347       -0.37603
H          3.17824        2.04010        0.81485
H          4.45707        1.01945        0.14527
H          3.22683        1.70754       -0.93161
H          2.70944       -0.37019        1.26795
H          3.72888       -1.18213       -0.67082
H          0.76803        1.12876        0.87814
H          0.83544        0.78315       -0.84998
H          0.43595       -1.64770       -0.38273
H          0.34357       -1.32322        1.33610
H         -4.50260       -0.92926        0.28595
