19
dsC7O2H10nsd_1304.xyz
C          1.87370       -1.55564       -0.23076
C          1.61258       -0.08706        0.10273
O          2.67713        0.75316       -0.33937
C          0.28246        0.38921       -0.45667
C         -0.42403        1.57331        0.14770
C         -0.99769        0.17488        0.32415
O         -0.82684       -0.45392        1.56955
C         -2.20663       -0.17906       -0.37481
C         -3.23400       -0.46896       -0.92979
H          1.86356       -1.71822       -1.31629
H          2.85126       -1.86155        0.15174
H          1.10360       -2.19306        0.21319
H          1.59624        0.03361        1.18890
H          2.77118        0.63051       -1.29057
H          0.18179        0.26436       -1.53272
H          0.02343        2.00986        1.03446
H         -0.94802        2.26661       -0.49970
H         -1.54971       -0.17231        2.14140
H         -4.13408       -0.73380       -1.42705
