19
dsC7O2H10nsd_4110.xyz
O          2.63599       -0.93564       -0.25116
C          1.39861       -0.28972       -0.43904
C          1.34861        1.26140       -0.35059
C          0.14752        1.14765        0.62881
C         -1.25747        1.20553        0.00740
C         -1.75619       -0.24431       -0.13570
O         -2.72485       -0.58594       -0.76194
C         -0.81919       -1.17275        0.64967
C          0.47415       -0.38481        0.80017
H          3.15766       -0.83428       -1.05383
H          0.89352       -0.66248       -1.34378
H          2.24344        1.63733        0.15274
H          1.19431        1.82174       -1.27747
H          0.22189        1.76539        1.52431
H         -1.97046        1.73775        0.64777
H         -1.29586        1.69900       -0.96877
H         -1.28782       -1.36504        1.62461
H         -0.71793       -2.13710        0.14475
H          1.05589       -0.62763        1.69018
