19
dsC7O2H10nsd_4650.xyz
C          2.93897       -0.97091        0.73788
C          2.23741       -0.16798       -0.37858
C          2.64937        1.31721       -0.35597
C          0.78800       -0.32378       -0.28475
C         -0.40835       -0.47268       -0.18731
C         -1.84398       -0.66140       -0.09751
O         -2.36949       -1.74956       -0.18094
C         -2.66995        0.61932        0.06246
O         -1.94845        1.74745        0.49347
H          2.66275       -0.58344        1.72283
H          2.66363       -2.02735        0.69658
H          4.02419       -0.88794        0.62688
H          2.54588       -0.59458       -1.34330
H          2.36307        1.78245        0.59207
H          3.73398        1.40681       -0.46821
H          2.17332        1.87294       -1.16828
H         -3.17794        0.78572       -0.90350
H         -3.44996        0.41882        0.80253
H         -1.14423        1.80479       -0.03528
