19
dsC7O2H10nsd_2895.xyz
C         -2.00992       -1.30558       -0.31069
C         -0.89772       -0.72301        0.56333
C          0.51689       -1.06663        0.10309
C          1.53522       -0.10160        0.77278
O          2.39933       -0.12375       -0.41505
C          1.02449       -0.01635       -0.93080
C          0.65806        1.02977        0.16108
C         -0.79926        0.84293        0.56158
O         -1.70633        1.38571       -0.39085
H         -1.89769       -1.00586       -1.35540
H         -1.99192       -2.39927       -0.26244
H         -2.99356       -0.96539        0.02322
H         -1.04377       -1.07145        1.59300
H          0.80941       -2.10728       -0.03581
H          2.01056       -0.15970        1.75293
H          0.88789        0.03109       -2.01048
H          1.08185        2.03236        0.08655
H         -1.00894        1.25584        1.55909
H         -1.56447        2.33676       -0.42566
