19
dsC7O2H10nsd_6080.xyz
C          3.57075        0.24119        0.31330
O          2.47287       -0.23458       -0.42718
C          1.23434        0.06689        0.17690
C          0.13184       -0.50843       -0.70675
C         -1.25431       -0.24994       -0.14612
C         -2.29703       -1.29417       -0.23226
O         -1.61073       -1.06358        0.99235
C         -1.66746        1.13361       -0.06302
C         -1.98738        2.29140       -0.01659
H          3.60740       -0.20187        1.32126
H          4.47754       -0.03891       -0.22841
H          3.54633        1.33718        0.42318
H          1.17377       -0.37328        1.18570
H          1.10925        1.15665        0.28593
H          0.20904       -0.07222       -1.70862
H          0.27849       -1.58848       -0.80056
H         -3.34469       -0.99981       -0.24665
H         -2.06109       -2.22925       -0.73915
H         -2.27765        3.31197        0.03322
