19
dsC7O2H10nsd_2669.xyz
O          1.09996        1.37720       -0.93076
C          0.97531        1.00297        0.41913
C          1.31183       -0.54279        0.61582
O          2.13876       -1.13760       -0.35150
C         -0.18001       -0.75759        0.53556
C         -1.10451       -1.38754       -0.18387
C         -2.31663       -0.47585       -0.35637
C         -1.73301        0.95306       -0.09536
C         -0.51150        0.68923        0.80730
H          1.98270        1.10371       -1.21039
H          1.51260        1.69347        1.08306
H          1.76328       -0.73578        1.59347
H          1.61761       -1.17882       -1.16234
H         -1.01596       -2.35694       -0.66162
H         -2.75490       -0.56656       -1.35630
H         -3.11849       -0.72130        0.35431
H         -1.39516        1.38544       -1.04147
H         -2.46487        1.63498        0.34587
H         -0.68535        0.93603        1.86029
