19
dsC7O2H10nsd_5510.xyz
C         -1.64025        1.67013       -0.61550
C         -0.93167        0.53217        0.06156
C         -1.23796       -0.11829        1.46199
C         -0.01595       -0.95226        0.95255
C          0.58623        0.42423        0.48609
C          1.68341        0.46452       -0.56485
O          2.95473        0.13489       -0.02413
C         -0.76016       -0.93148       -0.39075
O         -1.06347       -1.65207       -1.29175
H         -2.69666        1.42890       -0.77126
H         -1.58648        2.58663       -0.01894
H         -1.20029        1.87823       -1.59610
H         -1.01961        0.52896        2.31486
H         -2.19102       -0.63828        1.57803
H          0.48669       -1.76993        1.46475
H          0.83372        1.07482        1.33126
H          1.42873       -0.18266       -1.41854
H          1.78546        1.48467       -0.95142
H          2.92752       -0.78807        0.24790
