19
dsC7O2H10nsd_1521.xyz
C         -1.50547        1.52415       -0.48261
C         -1.27014        0.11826        0.03798
C         -2.21281       -0.93670       -0.50916
C         -0.76963       -0.04893        1.44684
C          0.16426       -0.30626        0.29008
C          0.94114       -1.54889       -0.12365
O          2.09857       -0.69787       -0.42169
C          1.42088        0.44165       -0.03933
O          1.82446        1.56206       -0.02795
H         -0.74833        2.21973       -0.11367
H         -1.47132        1.54518       -1.57750
H         -2.49278        1.88449       -0.17235
H         -1.99838       -1.92884       -0.09981
H         -3.24982       -0.68941       -0.25602
H         -2.14449       -0.99934       -1.60094
H         -0.57438        0.83908        2.03953
H         -1.09885       -0.91351        2.01491
H          1.18278       -2.26429        0.66615
H          0.60185       -2.06626       -1.02417
