19
dsC7O2H10nsd_4887.xyz
C          1.02801        2.31739        0.35070
C          0.47018        1.37155       -0.72098
C          0.37277       -0.06719       -0.24456
C          1.65629       -0.80968       -0.12541
O          1.75676       -1.96918        0.20885
C         -0.79744       -1.01890       -0.55549
C         -2.11551       -0.25749       -0.52484
O         -1.80328        0.28992        0.78943
C         -0.62338       -0.50188        0.83302
H          1.11624        3.33720       -0.03576
H          0.36586        2.33976        1.22122
H          2.02121        2.00536        0.69107
H         -0.51305        1.73099       -1.03262
H          1.10264        1.40306       -1.61768
H          2.56040       -0.20720       -0.36669
H         -0.61462       -2.00639       -0.95444
H         -2.30158        0.52036       -1.27280
H         -2.98203       -0.92362       -0.45811
H         -0.32840       -0.96814        1.76491
