19
dsC7O2H10nsd_2308.xyz
C          1.56648       -1.07896       -0.98987
C          0.49493       -0.63826       -0.01714
O          1.06112       -0.32875        1.29665
C          0.40418        0.95257        1.33568
C         -0.13135        0.79964       -0.10862
O          0.35563        1.70647       -1.06295
C         -1.64589        0.62661       -0.28252
C         -1.85355       -0.85135       -0.05180
C         -0.71410       -1.53165        0.08031
H          2.02511       -2.01179       -0.64570
H          1.14301       -1.24690       -1.98443
H          2.35974       -0.32910       -1.07028
H         -0.36247        1.00676        2.11923
H          1.11519        1.77776        1.47704
H          1.30204        1.82044       -0.92493
H         -2.22199        1.24755        0.41421
H         -1.94010        0.93204       -1.29424
H         -2.84499       -1.29006       -0.00688
H         -0.63377       -2.60008        0.25013
