19
dsC7O2H10nsd_5934.xyz
C          3.40686       -1.36916        0.02036
C          2.18317       -0.58449       -0.04692
C          1.17738        0.07713       -0.09247
C         -0.04651        0.84240       -0.16842
C         -1.29139        0.08632       -0.59946
C         -1.70687       -0.99118        0.40890
O         -2.89593       -1.66032        0.02046
C          0.03531        2.30425       -0.37350
O         -0.26258        1.77742        0.91373
H          3.21326       -2.42653       -0.19007
H          4.14853       -1.01497       -0.70397
H          3.85825       -1.30630        1.01652
H         -2.11717        0.79403       -0.72055
H         -1.10293       -0.37649       -1.57733
H         -0.87813       -1.69639        0.56838
H         -1.92590       -0.52025        1.37177
H         -2.70285       -2.16615       -0.77523
H          1.01288        2.77228       -0.47477
H         -0.78549        2.81236       -0.87924
