19
dsC7O2H10nsd_5562.xyz
O         -2.78326       -0.69177        0.17456
C         -1.81026        0.31906        0.36948
C         -0.52378        0.06962       -0.44455
C          0.16667       -1.22660       -0.07064
C          1.47737       -1.53623       -0.74738
C          1.48445       -0.90982        0.62423
C          1.65570        0.59391        0.69265
C          0.50104        1.17817       -0.13587
O          0.38966        2.32904       -0.47170
H         -3.07555       -0.64860       -0.74193
H         -2.19804        1.31758        0.12563
H         -1.58285        0.30217        1.44111
H         -0.78136        0.13047       -1.51039
H         -0.45831       -2.04656        0.26129
H          1.76761       -2.57819       -0.82484
H          1.78248       -0.93001       -1.59715
H          1.82099       -1.50959        1.46146
H          1.55448        0.96715        1.72014
H          2.61219        0.96886        0.31433
