19
dsC7O2H10nsd_0488.xyz
C         -1.55240        1.03613        0.02655
O         -2.52105        0.00000       -0.23777
C         -1.55240       -1.03613        0.02654
C         -0.41336       -0.00000        0.08643
O          0.40446       -0.00001        1.26417
C          1.73379       -0.00000        0.70557
C          1.64282        1.06899       -0.41030
C          0.66566        0.00001       -0.99869
C          1.64282       -1.06899       -0.41031
H         -1.50919        1.78148       -0.77741
H         -1.72760        1.53765        0.98678
H         -1.72760       -1.53765        0.98677
H         -1.50920       -1.78148       -0.77741
H          2.46949       -0.00001        1.50751
H          1.24374        2.04759       -0.13277
H          2.55802        1.17071       -0.99565
H          0.33174        0.00001       -2.03535
H          1.24373       -2.04759       -0.13279
H          2.55802       -1.17071       -0.99566
