19
dsC7O2H10nsd_0026.xyz
C          2.50179       -1.44684        0.54825
C          1.96366       -0.48161       -0.52331
C          0.58172        0.00232       -0.25895
C          0.03884        1.22374        0.01323
O          0.64201        2.44089        0.11704
C         -1.37047        1.03758        0.18724
C         -1.59834       -0.29165        0.01149
C         -2.82727       -1.12666        0.05671
O         -0.42984       -0.93400       -0.25932
H          3.50814       -1.79344        0.29320
H          2.54121       -0.96150        1.52817
H          1.85075       -2.32108        0.63388
H          2.62622        0.39062       -0.60004
H          2.00653       -0.97330       -1.50491
H          1.58625        2.33703       -0.03841
H         -2.09836        1.80090        0.41126
H         -3.00603       -1.63131       -0.89983
H         -2.75777       -1.90365        0.82683
H         -3.69395       -0.50074        0.28014
