19
dsC7O2H10nsd_2699.xyz
C          0.00038        2.21963        0.09622
C          0.00012        0.73635       -0.23009
C          1.09572       -0.18237        0.40664
C         -0.00022       -1.27706        0.55254
C         -1.09582       -0.18200        0.40653
C         -2.28989       -0.50351       -0.44645
O         -3.43827       -0.30684       -0.14317
C          2.28978       -0.50407       -0.44628
O          3.43814       -0.30683       -0.14329
H          0.88610        2.71209       -0.31880
H         -0.88506        2.71244       -0.31898
H          0.00030        2.38403        1.17858
H          0.00015        0.58630       -1.31841
H          1.43217        0.20261        1.37239
H         -0.00028       -1.95769       -0.30710
H         -0.00039       -1.86934        1.46835
H         -1.43226        0.20302        1.37226
H         -2.02616       -0.95237       -1.43581
H          2.02606       -0.95353       -1.43537
