19
dsC7O2H10nsd_4519.xyz
O         -2.37749       -0.51714        0.31271
C         -1.27408       -0.31217       -0.56879
C         -0.87138        1.16754       -0.59872
O         -0.06162        1.54168        0.50990
C          1.08721        0.72556        0.65892
C          1.84739        0.29865       -0.64653
C          1.34613       -1.12854       -0.43402
C          0.79761       -0.76042        0.94966
C         -0.13464       -1.22445       -0.13319
H         -2.08075       -0.24640        1.18982
H         -1.64828       -0.59494       -1.55914
H         -0.36842        1.41003       -1.54466
H         -1.77799        1.77415       -0.53292
H          1.71629        1.22757        1.39461
H          1.61262        0.80847       -1.58398
H          2.92606        0.36534       -0.48318
H          1.89283       -2.02221       -0.71097
H          0.91712       -1.26238        1.90170
H         -0.46604       -2.25302       -0.01612
