19
dsC7O2H10nsd_1675.xyz
O          1.53931       -1.38993       -0.00002
C          0.60480       -0.33811        0.00006
C         -0.34373       -0.42310        1.24609
C         -1.76399       -0.21236        0.75660
C         -2.08569        1.05267       -0.00005
C         -1.76396       -0.21242       -0.75659
C         -0.34369       -0.42317       -1.24605
C          1.37087        0.97345       -0.00002
O          2.57783        1.01442        0.00000
H          2.41397       -0.96856        0.00008
H         -0.21748       -1.43243        1.64716
H         -0.05196        0.27663        2.03859
H         -2.56314       -0.68618        1.31537
H         -3.12105        1.37586       -0.00009
H         -1.37909        1.87716       -0.00007
H         -2.56312       -0.68627       -1.31533
H         -0.21738       -1.43248       -1.64711
H         -0.05189        0.27659       -2.03851
H          0.76630        1.90204       -0.00010
