19
dsC7O2H10nsd_2382.xyz
C         -0.21537        1.83081        0.39158
C         -0.78948        0.50691        0.00455
O         -1.97642        0.52880       -0.80663
C         -2.52700       -0.59562       -0.06882
C         -1.24823       -0.74085        0.73892
C         -0.06909       -0.79669       -0.22168
C          1.30329       -1.00628        0.39901
C          2.39402       -0.38277       -0.44775
O          3.15037        0.47352       -0.06747
H          0.03165        2.40209       -0.51053
H         -0.93513        2.41460        0.97331
H          0.70271        1.71721        0.97271
H         -3.39214       -0.27902        0.52521
H         -2.81404       -1.42587       -0.72551
H         -1.16655       -1.02518        1.78000
H         -0.21850       -1.27878       -1.18742
H          1.36396       -0.58184        1.40520
H          1.50192       -2.08485        0.47690
H          2.44568       -0.76988       -1.49199
