19
dsC7O2H10nsd_3410.xyz
C          2.81290        0.52181       -0.41715
C          1.38110        0.03744       -0.41933
C          0.80744       -0.69930        0.74408
C         -0.24427       -1.75851        0.47619
O         -1.04828       -1.40827       -0.63855
C         -1.81478       -0.23947       -0.41978
C         -1.02535        0.98032        0.06840
O         -1.57211        2.05784        0.15904
C          0.37466        0.74307        0.49955
H          3.13726        0.79874        0.59127
H          3.48814       -0.25987       -0.78214
H          2.93603        1.39866       -1.06107
H          0.99241       -0.25884       -1.38843
H          1.44432       -0.87626        1.60660
H          0.22107       -2.71581        0.22000
H         -0.87064       -1.91433        1.37090
H         -2.30469        0.00604       -1.36561
H         -2.60837       -0.41843        0.32640
H          0.77734        1.53152        1.12644
