19
dsC7O2H10nsd_0726.xyz
O         -2.31193        1.15426       -0.12450
C         -1.45632        0.33109        0.06499
C         -1.49878       -1.14044       -0.34663
O         -0.16071       -1.58333       -0.31065
C          0.57191       -0.83483        0.68032
C          1.98219       -0.58810        0.14559
C          1.80716        0.62842       -0.77945
C          0.83362        1.53489       -0.00218
C         -0.10743        0.55203        0.75313
H         -2.14579       -1.69335        0.35746
H         -1.90370       -1.26907       -1.35438
H          0.55378       -1.38127        1.63264
H          2.64845       -0.34173        0.98140
H          2.38022       -1.47478       -0.35404
H          2.74920        1.12840       -1.01802
H          1.35519        0.30525       -1.72304
H          1.38318        2.13755        0.72819
H          0.27231        2.22714       -0.63510
H         -0.30589        0.89609        1.77141
