19
dsC7O2H10nsd_2957.xyz
C          2.53890       -0.92060       -0.59860
C          1.05230       -0.65177       -0.52116
C          0.35303       -0.66472        0.83018
C         -1.11793       -1.02195        0.84925
C         -1.78700       -0.03149       -0.12090
O         -2.89502       -0.14238       -0.57441
C         -0.81411        1.12144       -0.41515
C          0.54478        0.63850        0.05847
O          1.50350        1.58595        0.41489
H          3.06466       -0.45966        0.24030
H          2.74050       -1.99689       -0.58615
H          2.96457       -0.50852       -1.51938
H          0.47983       -1.05426       -1.35675
H          0.96884       -0.86329        1.70060
H         -1.35163       -2.04855        0.54831
H         -1.56092       -0.87284        1.84291
H         -0.86233        1.40849       -1.46951
H         -1.13487        1.99502        0.17056
H          1.20372        2.03554        1.21279
