19
dsC7O2H10nsd_5317.xyz
C         -2.72801       -0.97603        0.59479
C         -1.71421       -0.86338       -0.56138
C         -0.59673        0.09126       -0.27270
C          0.71077       -0.14609       -0.06536
C          1.43741        1.15063        0.18215
O          0.42775        2.15879        0.13382
C         -0.82626        1.57877       -0.17931
C          1.40784       -1.42816       -0.07238
O          2.60048       -1.53916        0.12493
H         -3.19407       -0.01224        0.81883
H         -3.52317       -1.67968        0.33329
H         -2.24105       -1.33449        1.50641
H         -1.31703       -1.85536       -0.79316
H         -2.24132       -0.52123       -1.46231
H          1.93783        1.16791        1.15989
H          2.20715        1.34217       -0.57925
H         -1.56464        1.83918        0.59544
H         -1.21434        1.97738       -1.13298
H          0.77998       -2.32271       -0.27101
