19
dsC7O2H10nsd_2099.xyz
C          2.38592       -0.70395       -0.02502
C          0.91003       -0.46957       -0.01283
O          0.00001       -1.62554       -0.01264
C         -0.91002       -0.46958       -0.01283
C         -2.38591       -0.70397       -0.02503
C          0.00000        0.29108       -1.03421
C         -0.00001        1.75528       -0.63106
O         -0.00002        1.65151        0.81314
C         -0.00001        0.25977        1.02083
H          2.69369       -1.22312       -0.93808
H          2.91845        0.25103        0.02807
H          2.68401       -1.31128        0.83518
H         -2.69374       -1.22287       -0.93822
H         -2.68394       -1.31155        0.83502
H         -2.91845        0.25099        0.02837
H          0.00001        0.00206       -2.08435
H          0.89032        2.30327       -0.96301
H         -0.89033        2.30326       -0.96303
H         -0.00001       -0.00389        2.07699
