19
dsC7O2H10nsd_4679.xyz
C          2.99177       -0.84285        0.00013
O          1.56703       -0.70742       -0.00009
C          1.11004        0.56819       -0.00019
O          1.83847        1.53042        0.00001
C         -0.37284        0.63525       -0.00018
C         -1.14802       -0.42813        0.75761
C         -2.63239       -0.04514        0.78385
C         -2.63247       -0.04531       -0.78372
C         -1.14811       -0.42834       -0.75755
H          3.42487       -0.37464        0.88777
H          3.18830       -1.91528        0.00002
H          3.42517       -0.37439       -0.88723
H         -0.72847        1.66140       -0.00028
H         -0.63659       -1.09398        1.43995
H         -3.26580       -0.83403        1.19485
H         -2.87828        0.89688        1.28361
H         -3.26593       -0.83429       -1.19446
H         -2.87840        0.89659       -1.28367
H         -0.63678       -1.09439       -1.43976
