19
dsC7O2H10nsd_1874.xyz
C          1.40281        1.73462       -0.51118
C          0.39334        0.76326        0.04785
C          0.62974        0.06357        1.37928
C          0.63503       -0.73585        0.10436
O          1.84897       -1.24916       -0.36206
C         -0.64188       -1.46696       -0.33770
C         -1.68397       -0.38189       -0.55612
O         -2.01087        0.39057        0.60763
C         -1.06643        0.93600       -0.32558
H          2.41458        1.33925       -0.39245
H          1.24043        1.90215       -1.58227
H          1.34895        2.70653       -0.00809
H          1.60168        0.23295        1.83307
H         -0.20387       -0.03041        2.06431
H          2.19118       -1.85966        0.29925
H         -0.43355       -1.96927       -1.28870
H         -0.97950       -2.22606        0.37655
H         -2.51100       -0.54816       -1.24224
H         -1.38541        1.84486       -0.82944
