19
dsC7O2H10nsd_2877.xyz
O         -2.04127       -1.30350       -0.04143
C         -1.34710       -0.13795       -0.44267
C          0.02636       -0.38320       -1.05386
C          0.84229        0.88390       -0.81700
C         -0.06773        1.86030       -0.07376
C         -0.87457        0.79769        0.71169
C          0.24459       -0.04394        1.36507
C          1.02439       -0.32649        0.08158
O          2.14485       -1.14433        0.04614
H         -1.39365       -1.94536        0.26643
H         -2.02562        0.39004       -1.12131
H          0.18986       -1.01474       -1.91706
H          1.61521        1.18499       -1.51227
H          0.48047        2.54714        0.58021
H         -0.69811        2.45495       -0.74362
H         -1.66248        1.16201        1.36922
H          0.82644        0.52609        2.09860
H         -0.12470       -0.95162        1.85286
H          2.87444       -0.67268        0.46302
