19
dsC7O2H10nsd_3491.xyz
C         -0.51296       -1.35590        1.61414
C         -0.15064       -1.02624        0.15241
C          1.28396       -0.45294        0.04044
O          1.83845       -0.65174       -1.26043
C          1.35603        1.00158        0.43351
C          0.29742        1.81175        0.45563
C         -1.10370        1.36662        0.12695
C         -1.15851       -0.04996       -0.43734
O         -1.94845       -0.36172       -1.29762
H         -0.44152       -0.47511        2.25926
H         -1.52879       -1.75484        1.68584
H          0.17395       -2.11221        2.00668
H         -0.19368       -1.93826       -0.44890
H          1.93343       -1.04475        0.69669
H          1.41425       -0.02777       -1.86014
H          2.34605        1.39121        0.65363
H          0.42192        2.86013        0.71683
H         -1.73043        1.40162        1.03179
H         -1.58469        2.03825       -0.59181
