19
dsC7O2H10nsd_2788.xyz
C          3.05520       -0.66922        0.03321
C          1.69779       -0.10076       -0.32026
C          0.78777        0.27834        0.81967
C          0.48684       -0.94821       -0.04902
C         -0.76845       -0.25395       -0.62387
C         -2.05475       -0.98883       -0.34956
O         -2.85006       -0.70520        0.51178
C         -0.47133        0.96699        0.31654
O         -0.24335        2.22581       -0.27550
H          3.45026       -1.28785       -0.77955
H          3.77692        0.13114        0.22745
H          3.00156       -1.29379        0.93154
H          1.68578        0.53202       -1.20544
H          1.15028        0.31724        1.84007
H          0.55503       -1.99660        0.21652
H         -0.69850       -0.05293       -1.70102
H         -2.23129       -1.86614       -1.01416
H         -1.24481        1.01270        1.09050
H         -1.09637        2.63309       -0.45641
