19
dsC7O2H10nsd_1956.xyz
C          2.59599       -0.10078       -0.78788
C          1.31970       -0.02757       -0.00126
C          0.97724       -1.00540        1.08869
C          0.12505       -0.92995       -0.17652
C         -1.06134       -0.02111       -0.09555
C         -2.25338       -0.14769       -0.93917
O         -2.30015       -0.46124        0.45977
C         -0.51667        1.31905        0.41381
O          0.88393        1.30803        0.17311
H          2.90498       -1.14027       -0.92567
H          2.47101        0.36217       -1.77167
H          3.39846        0.42745       -0.26275
H          1.61196       -1.87866        1.19340
H          0.55417       -0.64396        2.01977
H          0.11514       -1.76007       -0.87240
H         -2.80350        0.74446       -1.23767
H         -2.35597       -0.99917       -1.61161
H         -0.94937        2.18586       -0.09445
H         -0.73658        1.40838        1.48736
