19
dsC7O2H10nsd_0186.xyz
C         -1.20001        0.54119        1.15022
C         -2.16039        0.39210       -0.03570
O         -2.06031       -0.96578       -0.47298
C         -1.07920       -0.03770       -0.93835
C         -0.02653        0.14742        0.18157
C          1.01452        1.23585       -0.10807
C          2.20565        0.40973       -0.61284
C          2.09490       -0.84177        0.26501
O          0.70290       -1.01117        0.54026
H         -1.10555        1.55914        1.53751
H         -1.37820       -0.16061        1.96685
H         -3.07924        0.92396       -0.25009
H         -0.95901        0.06362       -2.01266
H          0.65897        1.98280       -0.82279
H          1.27564        1.75645        0.82012
H          2.07422        0.14985       -1.66866
H          3.16585        0.92020       -0.50803
H          2.47012       -1.74794       -0.22171
H          2.64286       -0.71275        1.21026
