19
dsC7O2H10nsd_5053.xyz
O          2.00481       -0.50326       -0.93456
C          1.69346       -0.48113        0.46553
C          0.19985       -0.37481        0.58162
C         -0.40618        0.65375        1.52044
C         -0.46340        0.88509        0.03368
O          0.28461        1.93364       -0.49674
C         -1.70332        0.41330       -0.65514
C         -1.83511       -0.91179       -0.56924
C         -0.67179       -1.55825        0.15731
H          2.95271       -0.63855       -1.03131
H          2.06340       -1.39405        0.95692
H          2.17163        0.38042        0.95049
H         -1.32441        0.41284        2.04597
H          0.29576        1.26957        2.07376
H          0.83737        1.54693       -1.18893
H         -2.39160        1.10105       -1.13260
H         -2.67757       -1.48522       -0.93943
H         -1.00732       -2.15688        1.01448
H         -0.11634       -2.23610       -0.50413
