19
dsC7O2H10nsd_5764.xyz
C          2.54782        0.47365       -0.01538
O          1.58100       -0.37640       -0.60661
C          0.70579       -0.95332        0.31768
C         -0.40450       -1.80151       -0.34822
C         -1.49786       -0.90989        0.29510
C         -1.93543        0.29968       -0.57839
C         -0.81155        1.12969        0.06969
O         -0.44027        2.26173       -0.05047
C         -0.38144       -0.02457        0.97875
H          3.14470       -0.06420        0.73729
H          3.20862        0.81157       -0.81654
H          2.08097        1.34912        0.45426
H          1.26513       -1.50128        1.09109
H         -0.36869       -1.78038       -1.44028
H         -0.41406       -2.84219       -0.01801
H         -2.27998       -1.40475        0.86769
H         -1.88862        0.18410       -1.66520
H         -2.92033        0.70108       -0.31483
H         -0.29057        0.18199        2.04582
