19
dsC7O2H10nsd_4292.xyz
C         -2.67482        0.03247        0.85560
C         -1.74218        0.09766       -0.35004
O         -0.91661       -1.08289       -0.38866
C          0.41285       -0.71474       -0.67897
O          1.39646       -1.23158        0.20403
C          2.12470       -0.14829        0.80464
C          1.86067        1.11309       -0.06743
C          0.46967        0.77609       -0.47989
C         -0.75655        1.24561       -0.29392
H         -3.36342        0.88390        0.85815
H         -3.26481       -0.88737        0.81821
H         -2.09943        0.03822        1.78571
H         -2.34971        0.12183       -1.26954
H          0.66174       -1.08349       -1.68664
H          1.76894        0.02492        1.82946
H          3.18006       -0.43260        0.84545
H          1.95473        2.04344        0.49554
H          2.55402        1.14225       -0.91610
H         -1.04699        2.25326       -0.02311
