19
dsC7O2H10nsd_2262.xyz
O          2.61424        0.25426       -0.24254
C          1.25160        0.02683       -0.14327
C          0.53725       -1.14113       -0.81962
C         -0.41344       -1.21753        0.43137
O         -1.76329       -0.83443        0.25608
C         -1.92898        0.31927       -0.55473
C         -1.05736        1.51042       -0.11871
C          0.31762        1.09947        0.38555
C          0.47869       -0.18996        1.15164
H          2.77132        0.83702       -0.99348
H          0.10015       -1.00109       -1.81198
H          1.18952       -2.01793       -0.84398
H         -0.44419       -2.20336        0.89582
H         -1.72665        0.07069       -1.60625
H         -2.98869        0.57975       -0.48565
H         -0.98512        2.22124       -0.95130
H         -1.55714        2.03840        0.70315
H          0.89591        1.91409        0.81597
H          0.82502       -0.24156        2.17603
