19
dsC7O2H10nsd_0355.xyz
C         -2.60898        0.11115        0.41593
C         -1.79071       -1.05132       -0.18010
C         -0.83488        0.06182       -0.66334
O         -1.62304        1.08188       -0.00577
C          0.57383        0.05928       -0.15222
C          1.67426        1.14034       -0.32786
C          2.30385       -0.14674        0.25002
C          1.13746       -0.26770        1.25716
O          1.51472       -0.94161       -0.72470
H         -3.58155        0.29171       -0.05799
H         -2.73948        0.11017        1.50412
H         -1.35408       -1.73435        0.54954
H         -2.27684       -1.62744       -0.96744
H         -0.81712        0.20526       -1.75250
H          1.93920        1.36187       -1.36242
H          1.62657        2.02727        0.30736
H          3.35351       -0.41088        0.37474
H          0.94345       -1.27955        1.61539
H          1.04393        0.49280        2.03544
