19
dsC7O2H10nsd_0534.xyz
C         -0.28243       -1.35217       -0.79296
O         -1.60423       -1.26084       -0.22552
C         -1.15816       -0.34915        0.79758
C         -1.50407        1.11702        0.37268
C         -0.40866        1.59432       -0.66032
C          0.76062        0.91552        0.02859
O          2.08435        0.42813       -0.35246
C          1.83864       -0.69260        0.56367
C          0.32241       -0.48652        0.33267
H          0.08309       -2.38733       -0.77559
H         -0.22706       -0.97564       -1.82155
H         -1.52885       -0.62150        1.78928
H         -2.51263        1.14813       -0.04551
H         -1.48366        1.77340        1.25002
H         -0.60948        1.20372       -1.66044
H         -0.35338        2.68349       -0.71673
H          0.89918        1.44807        0.98794
H          2.27612       -1.62304        0.19174
H          2.20558       -0.46615        1.57322
