19
dsC7O2H10nsd_5878.xyz
C          2.35631        1.36252        0.66781
C          2.69322        0.14541       -0.16489
O          3.63364        0.10633       -0.91932
C          1.80231       -1.10360        0.01332
C          0.39014       -0.84641        0.25646
C         -0.77678       -0.62780        0.46225
C         -2.19347       -0.34801        0.65837
C         -2.85160        0.28013       -0.58744
O         -4.21367        0.59106       -0.36725
H          1.39120        1.76959        0.34956
H          2.24397        1.08968        1.72277
H          3.13607        2.11551        0.55138
H          1.95470       -1.73025       -0.87095
H          2.23018       -1.65900        0.86212
H         -2.72457       -1.27609        0.91280
H         -2.33954        0.33224        1.50615
H         -2.35573        1.22645       -0.82226
H         -2.71407       -0.38537       -1.45172
H         -4.70270       -0.23538       -0.30257
