19
dsC7O2H10nsd_4832.xyz
O         -2.65428       -0.51365       -0.52136
C         -1.66093       -0.70103        0.48979
C         -0.53812        0.27207        0.16816
O         -1.05940        1.57809        0.07543
C          0.77212        0.18713        0.96242
C          1.29485       -1.03596        0.12648
C          2.63898       -0.34549       -0.17405
C          1.60197        0.79178       -0.22749
C          0.51815       -0.12969       -0.89283
H         -3.47092       -0.92866       -0.23123
H         -2.06750       -0.46451        1.48412
H         -1.29823       -1.73758        0.49989
H         -1.89594        1.49004       -0.39959
H          0.94110        0.36853        2.02563
H          1.10072       -2.08894        0.33471
H          3.36884       -0.31172        0.64170
H          3.12920       -0.61203       -1.11614
H          1.74536        1.85213       -0.42590
H          0.39461       -0.31562       -1.96072
