19
dsC7O2H10nsd_3056.xyz
O          2.63618       -0.68831       -0.17468
C          1.43843       -0.13026       -0.61025
C          0.89701        1.26069       -0.02889
C          0.51796        0.50225        1.26239
C          0.06053       -0.41009        0.06329
O         -0.90216       -1.40202        0.12438
C         -2.17698       -0.71156       -0.00388
C         -1.90835        0.83487       -0.12906
C         -0.47030        0.83047       -0.65355
H          2.62166       -0.77797        0.78352
H          1.44894       -0.19346       -1.70094
H          1.40375        2.22005       -0.10758
H          1.33355        0.14956        1.89983
H         -0.26375        0.93655        1.88485
H         -2.67765       -1.10169       -0.89735
H         -2.79428       -0.95178        0.86764
H         -2.61582        1.29845       -0.82014
H         -2.02759        1.32500        0.83877
H         -0.45074        0.75966       -1.74638
