19
dsC7O2H10nsd_0641.xyz
C         -2.16324       -0.36728       -0.31292
C         -1.13675       -1.29013        0.36515
O          0.06437       -1.34713       -0.39281
C          1.29968       -1.20310        0.26543
O          2.12418       -0.25779       -0.36258
C          1.97289        1.10116        0.05554
C          0.57489        1.51810        0.05867
C         -0.62872        1.51024        0.05470
C         -2.03502        1.13464        0.06379
H         -2.04446       -0.48755       -1.39392
H         -3.17457       -0.70230       -0.05658
H         -0.93293       -0.95249        1.39166
H         -1.55461       -2.30443        0.43317
H          1.14104       -0.95439        1.32746
H          1.85428       -2.14620        0.18671
H          2.40887        1.23393        1.05867
H          2.58000        1.68674       -0.64183
H         -2.45908        1.30073        1.06284
H         -2.62925        1.74357       -0.62721
