19
dsC7O2H10nsd_2709.xyz
C          2.47026       -0.06298        0.13092
C          0.97116       -0.02674        0.14570
C          0.01310        1.12542        0.47663
O          0.10726        2.20093       -0.43484
C         -0.97739       -0.01297        0.14324
C         -2.47726       -0.03565        0.12485
C         -0.01196       -1.07584        0.76283
O         -0.01680       -1.94297       -0.41127
C         -0.00581       -0.58418       -0.94614
H          2.88390        0.14850        1.12305
H          2.81938       -1.05224       -0.18217
H          2.87010        0.68148       -0.56486
H          0.01738        1.47654        1.51927
H         -0.58669        2.83522       -0.23088
H         -2.89455        0.17869        1.11516
H         -2.87437        0.70767       -0.57556
H         -2.83480       -1.02165       -0.18945
H         -0.01445       -1.53407        1.75219
H         -0.00213       -0.44621       -2.02606
