19
dsC7O2H10nsd_2872.xyz
O          2.47669       -0.67838       -0.11816
C          1.19233       -0.38972       -0.63488
C          0.77309        1.07405       -0.54347
C          0.01914        1.23355        0.76815
C         -0.01359       -0.13565        1.44587
C         -0.01062       -0.97884        0.15290
C         -1.19614       -0.35347       -0.62994
O         -2.47086       -0.50130       -0.02694
C         -0.74204        1.09459       -0.53390
H          2.57965       -0.19053        0.70532
H          1.20989       -0.75877       -1.66580
H          1.36069        1.87065       -0.98106
H          0.02738        2.16500        1.31802
H          0.85290       -0.33428        2.08585
H         -0.92358       -0.29008        2.02987
H         -0.01580       -2.06311        0.26360
H         -1.22014       -0.70962       -1.67076
H         -2.73363       -1.42353       -0.11042
H         -1.31700        1.90456       -0.96212
