19
dsC7O2H10nsd_0053.xyz
C         -3.37416       -0.01234       -0.22701
O         -2.00239       -0.11800       -0.52311
C         -1.19070        0.00531        0.63521
C          0.23824       -0.17734        0.28250
C          1.25723        0.68927        0.00862
C          1.21075        2.18575       -0.00777
C          2.40112       -0.13311       -0.27629
C          1.98767       -1.41999       -0.15598
O          0.67818       -1.47011        0.18496
H         -3.62595        0.96488        0.21700
H         -3.92007       -0.12260       -1.16699
H         -3.70558       -0.79795        0.47126
H         -1.33170        0.99597        1.09635
H         -1.48553       -0.74853        1.38348
H          1.95811        2.61615        0.66835
H          1.41944        2.57848       -1.00946
H          0.23006        2.56254        0.29355
H          3.39392        0.20270       -0.53443
H          2.48003       -2.37206       -0.26959
