19
dsC7O2H10nsd_0968.xyz
O         -2.16491        1.28878        0.15809
C         -2.50298        0.25308       -0.34825
O         -1.90005       -0.93439       -0.22008
C         -0.71354       -0.97465        0.61586
C          0.52797       -0.71827       -0.21650
C          1.92909       -0.57524        0.46091
C          2.40393        0.07560       -0.87150
C          1.02527        0.72661       -0.55540
C          1.51964        0.85868        0.91396
H         -3.38228        0.12965       -0.99995
H         -0.84190       -0.26724        1.43501
H         -0.70153       -1.99270        1.01434
H          0.51888       -1.39733       -1.07711
H          2.45248       -1.33368        1.04623
H          3.27675        0.72988       -0.80462
H          2.45496       -0.57600       -1.74846
H          0.49692        1.47832       -1.14041
H          2.34191        1.55976        1.07978
H          0.76719        0.95922        1.69655
