19
dsC7O2H10nsd_2107.xyz
C          2.49588       -0.45543       -0.36752
C          1.01731       -0.42060       -0.12334
C         -0.07410       -1.19411       -0.87042
C         -1.08229       -0.24149       -0.16582
O         -2.27472        0.14955       -0.75363
C         -0.99029       -0.63917        1.33666
C          0.43039       -0.08137        1.28769
C          0.13242        0.76977        0.07351
O          0.36096        2.07545       -0.26486
H          3.00671        0.32002        0.21269
H          2.92671       -1.42321       -0.08565
H          2.72621       -0.28149       -1.42454
H         -0.03012       -0.99416       -1.94521
H         -0.18124       -2.27128       -0.68900
H         -2.83115       -0.62932       -0.86796
H         -1.65040       -0.01865        1.95003
H         -1.13242       -1.69779        1.58475
H          1.10216        0.13184        2.10952
H         -0.20239        2.63843        0.27867
