19
dsC7O2H10nsd_2037.xyz
O         -1.39474       -1.64432       -0.41983
C         -0.93436       -0.43873        0.08946
C         -1.92676        0.56585        0.55841
C         -1.04121        0.89543       -0.63573
C          0.19762        1.74080       -0.35007
C          1.15120        0.82684        0.45528
C          2.07234       -0.10137       -0.37148
O          1.33490       -1.28486        0.01684
C          0.40528       -0.48798        0.79602
H         -0.61870       -2.06527       -0.81615
H         -2.96453        0.33484        0.34392
H         -1.76449        1.08827        1.49832
H         -1.52027        0.95175       -1.60616
H          0.67434        2.07337       -1.27843
H         -0.05178        2.64655        0.21502
H          1.65513        1.33401        1.27805
H          2.05118        0.05997       -1.45662
H          3.11499       -0.15669       -0.03829
H          0.35809       -0.83836        1.83290
