19
dsC7O2H10nsd_2759.xyz
C         -2.11896       -1.53953       -0.39690
C         -0.85477       -0.72818       -0.57501
C          0.10431       -0.57414        0.60380
C          1.53409       -0.39367        0.21882
O          2.49030       -1.04098        0.53234
O          1.63156        0.68818       -0.62035
C          0.41988        1.45607       -0.62745
C         -0.65687        0.61866        0.06128
C         -1.73701        1.36626        0.80454
H         -2.52607       -1.45525        0.61429
H         -2.89566       -1.21688       -1.09878
H         -1.92066       -2.59982       -0.58285
H         -0.37929       -0.86478       -1.54482
H         -0.11712       -1.06959        1.53994
H          0.59902        2.39128       -0.08268
H          0.17807        1.69875       -1.66764
H         -1.30193        2.03294        1.55688
H         -2.33001        1.98135        0.11746
H         -2.42539        0.69160        1.31783
