19
dsC7O2H10nsd_1684.xyz
C          0.13823        1.64109       -0.53179
C          0.05160        0.33705        0.22115
O          1.25072        0.05956        0.96890
C          2.34310       -0.31420        0.28242
O          2.43690       -0.45812       -0.90457
C         -1.12034       -0.15743        1.02083
C         -2.44786        0.15271        0.32318
C         -1.94828       -0.61955       -0.94437
C         -0.62973       -0.92395       -0.22521
H          0.89667        1.57937       -1.31555
H         -0.81596        1.89271       -0.99860
H          0.40218        2.45363        0.15305
H          3.16171       -0.47054        1.00328
H         -0.98815       -0.39432        2.06964
H         -3.29179       -0.34992        0.79963
H         -2.70323        1.21005        0.20147
H         -2.53618       -1.52013       -1.13171
H         -1.87383       -0.05710       -1.87971
H         -0.07271       -1.84967       -0.29334
