19
dsC7O2H10nsd_4755.xyz
C          3.48721       -0.97442       -0.06288
O          2.11366       -0.78734       -0.32068
C          1.54233        0.32965        0.35391
C          1.87265        1.65998       -0.34393
C          0.09598        0.12279        0.42420
C         -1.10005       -0.00835        0.47518
C         -2.52384       -0.17851        0.56753
C         -3.30254       -0.79321       -0.52647
O         -3.34933        0.60984       -0.30826
H          3.68876       -1.07078        1.01574
H          3.77780       -1.90360       -0.55869
H          4.11124       -0.16004       -0.45877
H          1.93609        0.36387        1.38464
H          1.40282        2.49233        0.18673
H          2.95257        1.83006       -0.36098
H          1.49933        1.64227       -1.37059
H         -2.92170       -0.26622        1.57801
H         -2.78029       -1.11323       -1.42586
H         -4.21170       -1.34221       -0.28400
