19
dsC7O2H10nsd_2776.xyz
C         -2.38087       -1.24497        0.17653
C         -1.08658       -0.51824        0.54170
C          0.15865       -0.95875       -0.24800
C          0.25701        0.44616       -0.93720
C         -0.97347        0.84965       -0.19647
O         -1.72483        1.78300       -0.27598
C          1.33715       -0.10590        0.01961
C          1.68499        0.53863        1.34297
O          2.45991       -0.57868       -0.67682
H         -2.50542       -1.31043       -0.90944
H         -2.38749       -2.26148        0.58195
H         -3.24108       -0.70490        0.58106
H         -0.96817       -0.48644        1.62952
H          0.27122       -1.91540       -0.74235
H          0.54344        0.71790       -1.94579
H          2.34302        1.40060        1.17979
H          0.80422        0.90100        1.87609
H          2.21410       -0.17619        1.98123
H          3.06424        0.16126       -0.80458
