19
dsC7O2H10nsd_3584.xyz
C          2.25167        0.48757       -0.72529
C          1.38052       -0.65107       -0.23019
O          0.22915       -0.89744       -1.08411
C         -0.71594       -0.45901       -0.07294
C         -1.79878       -1.50000        0.17915
C         -1.27888        0.85313       -0.39124
C         -1.70187        1.96020       -0.60311
C          0.44829       -0.36078        0.97827
O          0.60511        0.80602        1.72233
H          2.68706        0.22925       -1.69507
H          1.67503        1.40843       -0.84793
H          3.06502        0.67761       -0.01785
H          1.97362       -1.56817       -0.12832
H         -1.33579       -2.45740        0.43260
H         -2.44771       -1.18534        1.00196
H         -2.41260       -1.63467       -0.71568
H         -2.09915        2.92184       -0.81935
H          0.41289       -1.18913        1.69006
H          0.29742        1.54866        1.18595
