19
dsC7O2H10nsd_5429.xyz
C         -2.54835       -1.52039        0.22365
C         -1.18645       -1.31549       -0.44950
C         -0.35134       -0.23959        0.23789
C          1.04910        0.17127       -0.35494
C          0.70164        1.67702       -0.11224
C         -0.75578        1.23776        0.08856
O         -1.80915        1.79863        0.00779
C          2.24108       -0.35775        0.38911
O          3.12921       -1.01356       -0.08889
H         -3.13268       -2.27981       -0.30403
H         -2.42992       -1.85181        1.26127
H         -3.11998       -0.58876        0.23025
H         -0.61917       -2.25427       -0.45432
H         -1.33067       -1.03538       -1.50021
H         -0.24238       -0.46487        1.30983
H          1.13271       -0.07710       -1.41460
H          1.13358        2.05688        0.82185
H          0.90873        2.39013       -0.91225
H          2.23995       -0.09254        1.47572
