19
dsC7O2H10nsd_1672.xyz
O         -1.02350        1.50241       -0.09090
C         -0.49294        0.21007        0.04947
C          0.40100        0.06394        1.34278
C          1.77299       -0.16061        0.67967
C          1.42950       -1.24333       -0.38187
C          0.60993       -0.07822       -1.01168
C          1.74479        0.85540       -0.49685
C         -1.62347       -0.79050        0.00347
O         -2.77611       -0.44880       -0.12834
H         -1.98252        1.38235       -0.18137
H          0.32925        0.98947        1.91736
H          0.10712       -0.77205        1.98631
H          2.63280       -0.25461        1.34281
H          2.28592       -1.51510       -1.00312
H          0.91489       -2.15032       -0.05148
H          0.28130       -0.07949       -2.05098
H          2.63713        0.79458       -1.12383
H          1.48935        1.89514       -0.28653
H         -1.34920       -1.85932        0.09488
