19
dsC7O2H10nsd_1913.xyz
C          2.00843       -0.79325       -0.80158
C          0.98866       -0.16432        0.14445
C          1.68510        0.57132        1.29818
C         -0.19868       -1.02465        0.63918
C         -1.04495       -1.48237       -0.50415
C         -1.22670       -0.05739        0.00636
O         -2.41749        0.38931        0.53208
C         -0.08221        0.79836       -0.46746
O         -0.00495        1.89828       -0.93876
H          1.53905       -1.36062       -1.60995
H          2.62498       -0.01281       -1.25918
H          2.67549       -1.47308       -0.25972
H          0.96032        1.02156        1.98388
H          2.31127       -0.12182        1.87053
H          2.32227        1.37077        0.90957
H         -0.26493       -1.46856        1.62447
H         -0.62284       -1.69028       -1.48247
H         -1.88294       -2.11764       -0.23264
H         -3.06105        0.46564       -0.18100
