19
dsC7O2H10nsd_5103.xyz
C          2.65483       -1.13880        0.24885
O          1.99639       -0.20770       -0.59713
C          0.77735        0.19926       -0.10695
C          0.64134        1.24950        0.96491
C          0.04320        1.47674       -0.41670
C         -1.25723        0.67217       -0.67819
C         -1.70879       -0.20922        0.45842
O         -2.90097       -0.92263        0.29418
C         -0.51753       -0.63360       -0.36065
H          2.06220       -2.05463        0.38193
H          3.60058       -1.39414       -0.23381
H          2.85589       -0.70621        1.23845
H          0.04838        1.14534        1.86657
H          1.56174        1.80820        1.10978
H          0.35224        2.31200       -1.03157
H         -1.92109        0.88400       -1.50846
H         -1.62819        0.08669        1.49774
H         -2.98434       -1.17497       -0.63189
H         -0.50974       -1.55986       -0.92326
