19
dsC7O2H10nsd_4220.xyz
O         -2.52616       -1.10037       -0.21964
C         -1.34835       -0.56264        0.34802
C         -1.55208        0.95022        0.61968
C         -0.48373        1.31258       -0.44767
C          0.96736        1.48013        0.08395
C          1.15993       -0.03576       -0.04997
C          1.95934       -0.96920        0.75001
O          2.33991       -0.61078       -0.58496
C         -0.22537       -0.22564       -0.67732
H         -2.33229       -1.99632       -0.51514
H         -1.01469       -1.16309        1.20682
H         -2.56622        1.25188        0.35053
H         -1.34000        1.28828        1.63763
H         -0.79410        1.98905       -1.24262
H          1.61546        2.01837       -0.61366
H          1.08282        1.91597        1.08094
H          2.60719       -0.58769        1.53870
H          1.63042       -2.00006        0.88017
H         -0.26115       -0.72534       -1.64675
