19
dsC7O2H10nsd_1238.xyz
C          0.95884       -1.56243       -0.72110
C          1.37755       -0.38526        0.18650
C          2.76245        0.15571       -0.17396
C          0.33363        0.72008        0.12839
O          0.53692        1.81333       -0.33731
C         -1.08261        0.42073        0.70657
O         -0.99935       -0.64367        1.64471
C         -2.01751        0.13200       -0.37970
C         -2.80473       -0.13526       -1.24821
H          1.70382       -2.36078       -0.65136
H         -0.00843       -1.97162       -0.42406
H          0.89814       -1.24702       -1.76772
H          1.37565       -0.75765        1.21785
H          3.05669        0.97325        0.48939
H          3.50956       -0.63989       -0.09544
H          2.77561        0.54378       -1.19621
H         -1.39032        1.35588        1.19734
H         -1.89171       -0.96805        1.80402
H         -3.49533       -0.35869       -2.02402
