19
dsC7O2H10nsd_5110.xyz
C         -0.73550        2.08557       -0.29674
C         -0.78568        0.62582        0.04820
C         -1.77754       -0.00913        0.98467
C         -1.72053       -0.47411       -0.45038
C         -0.48071       -1.38534       -0.69585
O          0.23553       -1.56335        0.53678
C          0.42503       -0.34482       -0.21898
C          1.83142        0.03140       -0.55191
O          2.51003        0.57934        0.56895
H         -1.73114        2.53566       -0.23205
H         -0.07342        2.62867        0.38733
H         -0.36480        2.25021       -1.31555
H         -1.45532       -0.66464        1.78358
H         -2.63426        0.61641        1.21730
H         -2.55169       -0.39358       -1.13878
H         -0.36437       -2.15072       -1.45455
H          2.34868       -0.85267       -0.95353
H          1.84521        0.80967       -1.32170
H          2.47772       -0.08324        1.26801
