19
dsC7O2H10nsd_4396.xyz
C         -2.50434        1.49284        0.32647
C         -1.64949        0.46733       -0.39135
C         -1.85958       -0.99755        0.03310
O         -0.56348       -1.57986       -0.05949
C          0.36162       -0.54356       -0.36251
C          1.61538       -0.71460        0.49688
C          2.68090        0.21230        0.14330
C          3.55707        0.97409       -0.16531
O         -0.27513        0.66991       -0.06838
H         -3.56331        1.32828        0.10416
H         -2.35712        1.42133        1.40809
H         -2.24097        2.50427        0.00652
H         -1.78330        0.55693       -1.48192
H         -2.22252       -1.06472        1.06757
H         -2.55737       -1.53138       -0.62134
H          0.62001       -0.59268       -1.43532
H          1.31772       -0.58894        1.54380
H          1.95532       -1.74962        0.37746
H          4.33096        1.65109       -0.42946
