19
dsC7O2H10nsd_0662.xyz
O         -3.07064       -0.18329       -0.53205
C         -1.95241       -0.04111       -0.15251
C         -1.23596        0.42390        1.11332
C          0.04725        0.12631        0.31804
C          0.95714       -1.02428        0.73336
C          2.11285       -0.92440       -0.27325
C          2.36221        0.59726       -0.39722
C          0.99478        1.26762       -0.07820
O         -0.79711       -0.28759       -0.84156
H         -1.41434        1.47066        1.36723
H         -1.41643       -0.20160        1.98973
H          1.31767       -0.83780        1.75347
H          0.43513       -1.98448        0.72825
H          3.00263       -1.47818        0.03610
H          1.78556       -1.33418       -1.23447
H          3.11537        0.91753        0.32950
H          2.73830        0.87312       -1.38493
H          1.08504        1.97653        0.75051
H          0.57784        1.81370       -0.92766
