19
dsC7O2H10nsd_1085.xyz
C         -2.31292        1.12769        0.00015
C         -1.54785       -0.17451       -0.00006
O         -2.08320       -1.26122       -0.00020
C         -0.03993       -0.09959       -0.00004
C          0.83725       -0.81734       -1.06614
C          1.93633       -0.52132        0.00021
C          0.83713       -0.81673        1.06660
C          1.90453        1.01310       -0.00023
O          0.47386        1.24339       -0.00037
H         -2.03246        1.72527       -0.87364
H         -3.38465        0.92651        0.00002
H         -2.03264        1.72485        0.87429
H          0.59525       -1.87530       -1.16031
H          0.91345       -0.33414       -2.04334
H          2.91062       -1.00805        0.00041
H          0.59513       -1.87464        1.16135
H          0.91320       -0.33297        2.04353
H          2.35477        1.46193        0.89255
H          2.35486        1.46141       -0.89321
