19
dsC7O2H10nsd_1616.xyz
O         -2.10904        1.18764       -0.00070
C         -1.26892        0.08440       -0.00014
C         -1.74464       -1.14689       -0.75138
C         -1.74481       -1.14647        0.75188
C          0.17564        0.46554        0.00018
O          0.44971        1.65826        0.00057
C          1.23488       -0.57470        0.00003
C          2.52402       -0.24644        0.74390
C          2.52377       -0.24635       -0.74432
H         -1.50063        1.94596       -0.00001
H         -2.69621       -1.01791       -1.25394
H         -1.02324       -1.75587       -1.28412
H         -2.69648       -1.01714        1.25417
H         -1.02351       -1.75511        1.28513
H          0.91912       -1.60988       -0.00002
H          2.54215        0.71500        1.24340
H          3.00624       -1.06106        1.27153
H          2.54173        0.71513       -1.24373
H          3.00577       -1.06092       -1.27222
