19
dsC7O2H10nsd_5556.xyz
O          3.02055        0.09897       -0.13195
C          1.90452       -0.66472        0.29512
C          0.59725       -0.28664       -0.42034
C         -0.53531       -1.23718       -0.00344
C         -1.91322       -1.09075       -0.59258
C         -1.60400       -0.44738        0.73784
C         -1.17152        0.99983        0.69396
O         -1.08274        1.55629       -0.62757
C          0.12302        1.10376       -0.00154
H          2.95407        0.97861        0.25012
H          2.14928       -1.70585        0.06044
H          1.76611       -0.60372        1.38637
H          0.78767       -0.31550       -1.49942
H         -0.24498       -2.22457        0.34301
H         -2.05287       -0.43336       -1.44160
H         -2.54572       -1.97192       -0.57994
H         -2.07369       -0.81239        1.64315
H         -1.49527        1.69221        1.46598
H          0.84857        1.89273        0.19397
