19
dsC7O2H10nsd_3862.xyz
C          2.38245       -1.06401        0.68534
C          1.78377        0.02542       -0.17853
O          0.67352       -0.48405       -0.98761
C         -0.24614        0.35797       -0.29014
C          0.09184        1.81355       -0.47890
C          0.86072        1.01727        0.53231
C         -1.57783       -0.14033        0.13635
C         -1.92084       -1.55722       -0.26797
O         -2.32417        0.57158        0.77611
H          2.79793       -1.85829        0.05848
H          3.18910       -0.65646        1.30467
H          1.62536       -1.50033        1.34387
H          2.54631        0.47923       -0.82405
H          0.55578        2.10898       -1.41571
H         -0.64333        2.49526       -0.06634
H          0.86279        1.23867        1.59138
H         -2.91776       -1.80927        0.09421
H         -1.87550       -1.65811       -1.35809
H         -1.17941       -2.25581        0.13279
