19
dsC7O2H10nsd_2030.xyz
O         -1.49507        1.47377       -0.40079
C         -0.79981        0.36213        0.08902
C         -1.46206       -0.61037        1.02524
C         -1.12966       -1.01351       -0.40555
C          0.17717       -1.75145       -0.72893
C          1.32043       -0.77318       -0.44461
C          1.57473       -0.31797        0.98639
C          0.72806        0.51977        0.08885
O          1.19020        1.79302       -0.22515
H         -1.54781        2.12224        0.31128
H         -0.91402       -1.03116        1.86092
H         -2.51532       -0.43840        1.22377
H         -1.97702       -1.15820       -1.06638
H          0.27368       -2.68739       -0.16560
H          0.18328       -2.02090       -1.79039
H          2.17077       -0.75865       -1.11731
H          1.14309       -0.85746        1.82286
H          2.56770        0.07500        1.17973
H          0.60152        2.12804       -0.91381
