19
dsC7O2H10nsd_3059.xyz
C         -2.80546        0.03295       -0.34810
C         -1.30126        0.13156       -0.56890
C         -0.41491       -1.05164       -0.05929
C         -0.43812       -0.37799        1.34117
C         -0.47751        0.94965        0.49679
C          0.90238        0.85615       -0.11263
O          1.81248        1.64345       -0.14565
C          0.95750       -0.62050       -0.59699
O          2.03982       -1.30890       -0.00902
H         -3.28849        0.99081       -0.56700
H         -3.23705       -0.71657       -1.02013
H         -3.07215       -0.24711        0.67412
H         -1.11647        0.42744       -1.60915
H         -0.70266       -2.09185       -0.20962
H         -1.36140       -0.54135        1.89496
H          0.42331       -0.54542        1.98996
H         -0.79413        1.90940        0.90106
H          0.99994       -0.67531       -1.69632
H          2.79506       -0.70759       -0.03280
