19
dsC7O2H10nsd_1538.xyz
C          1.46207        1.47381        0.62057
C          1.18459        0.07061        0.09419
C          2.45791       -0.60363       -0.42141
C          0.36626       -0.88240        1.03871
C         -0.69747       -1.09413       -0.08720
C          0.04802       -0.05806       -0.96069
O         -1.04987        0.89130       -0.76940
C         -1.78389       -0.02765       -0.04463
O         -2.87406        0.11459        0.40552
H          2.13609        1.43051        1.48330
H          1.93939        2.09485       -0.14564
H          0.54092        1.97323        0.92962
H          2.25170       -1.59895       -0.83126
H          2.92428       -0.00537       -1.21197
H          3.18630       -0.72201        0.38760
H          0.89924       -1.79653        1.30705
H         -0.02568       -0.42840        1.95126
H         -0.97720       -2.10368       -0.37805
H          0.29140       -0.16217       -2.01806
