19
dsC7O2H10nsd_1898.xyz
C         -2.23371       -1.47543       -0.32289
C         -1.47415       -0.24154        0.03881
C         -1.91164        1.22869       -0.09458
C         -0.39955        1.62714       -0.20912
C         -0.04674        0.13658       -0.06710
C          1.16949       -0.59157       -0.56014
C          2.39277       -0.29220        0.29210
O          3.45863        0.05386       -0.14608
O         -0.60937       -0.29144        1.18932
H         -2.65383       -1.39179       -1.33027
H         -1.58703       -2.35626       -0.28293
H         -3.06316       -1.63525        0.37538
H         -2.47072        1.43272       -1.01111
H         -2.46061        1.62206        0.76411
H         -0.14577        2.03932       -1.18880
H          0.00183        2.27491        0.57375
H          0.98208       -1.67183       -0.49257
H          1.39634       -0.33796       -1.59971
H          2.22801       -0.42532        1.38381
