19
dsC7O2H10nsd_3009.xyz
C         -1.26313        1.83732       -0.08515
C         -0.33847        0.66344        0.05081
O         -0.50773       -0.11954        1.31666
C          0.23422       -1.15649        0.56363
C          1.62460       -0.52477        0.43108
C          2.05065        0.06348       -0.89245
C          1.18481        0.87642        0.03934
C         -0.58003       -0.70180       -0.67217
O         -1.91830       -1.11360       -0.65923
H         -2.30402        1.50634       -0.12448
H         -1.14248        2.52191        0.76060
H         -1.04111        2.38721       -1.00515
H          0.13790       -2.15494        0.98992
H          2.35858       -0.70815        1.20626
H          3.09005        0.37401       -0.94508
H          1.67704       -0.31716       -1.83468
H          1.58295        1.76657        0.51285
H         -0.21185       -0.87034       -1.68314
H         -2.21472       -0.98590        0.25300
