19
dsC7O2H10nsd_3505.xyz
O         -2.37246       -0.08676       -0.54158
C         -1.35232       -0.01580        0.45552
C         -0.73846        1.36765        0.44554
C          0.48661        1.76189        0.09030
C          1.66898        0.94446       -0.36305
C          1.50619       -0.56557       -0.28590
C          0.93585       -1.10496        1.04364
C         -0.38395       -1.17434        0.25717
O          0.32167       -1.01136       -1.00300
H         -1.90454       -0.03923       -1.38574
H         -1.87481       -0.16485        1.41045
H         -1.45649        2.14087        0.71136
H          0.68203        2.83334        0.10882
H          1.90746        1.22130       -1.40068
H          2.55437        1.23055        0.22414
H          2.40283       -1.06561       -0.66731
H          1.32674       -2.08900        1.30608
H          0.97179       -0.44593        1.91227
H         -0.94042       -2.11653        0.27804
