19
dsC7O2H10nsd_2469.xyz
O         -0.21263        1.94599       -0.32224
C         -0.10781        0.70625        0.34780
C          1.29832        0.49878        0.94158
C          1.96442       -0.46192       -0.12749
O          0.95609       -0.87677       -1.09279
C         -0.24250       -0.58240       -0.45812
C         -1.69497       -0.18466       -0.82375
C         -1.49873        0.10019        0.72883
C         -0.82211       -1.28919        0.81472
H          0.47777        1.98643       -0.99442
H          1.82573        1.45107        1.01781
H          1.31010        0.03723        1.92928
H          2.76830        0.02198       -0.68956
H          2.37556       -1.35351        0.35839
H         -1.82514        0.68778       -1.45894
H         -2.38392       -0.99550       -1.06875
H         -2.25069        0.50948        1.40061
H         -0.15433       -1.47422        1.65621
H         -1.47068       -2.14678        0.62829
