19
dsC7O2H10nsd_0734.xyz
O         -0.51981        2.13801       -0.15951
C         -0.83195        0.97561       -0.15815
C         -2.19348        0.40200        0.23872
C         -1.92692       -1.09007        0.48452
C         -0.80196       -1.43956       -0.51703
C          0.10528       -0.19192       -0.54733
C          1.27068       -0.26437        0.41992
C          2.47535        0.54753        0.23446
O          2.47469       -0.85169       -0.07472
H         -2.62270        0.95249        1.07877
H         -2.86724        0.54303       -0.61786
H         -1.57735       -1.24199        1.51257
H         -2.81381       -1.71402        0.35269
H         -0.25671       -2.34715       -0.24604
H         -1.23245       -1.60583       -1.51059
H          0.52182        0.00743       -1.53912
H          1.01672       -0.57355        1.43596
H          2.53689        1.21827       -0.62014
H          3.07374        0.83548        1.09694
