19
dsC7O2H10nsd_2178.xyz
C          2.43370       -0.83557        0.21590
C          1.07363       -0.24571       -0.03240
C          0.01317       -1.01841       -0.86574
C         -1.10556       -0.34881       -0.02096
O         -2.19728       -1.11966        0.38087
C         -1.33377        1.13783       -0.41139
C         -0.01391        1.49345        0.31544
O          1.14253        1.13888       -0.47237
C         -0.02129        0.11115        1.02154
H          2.35060       -1.85472        0.60583
H          3.00551       -0.87182       -0.71842
H          2.99311       -0.22798        0.93324
H          0.02511       -0.86618       -1.94891
H          0.04729       -2.08785       -0.63257
H         -2.73310       -1.31459       -0.39647
H         -1.41624        1.40796       -1.46819
H         -2.19061        1.52656        0.14888
H          0.09329        2.47128        0.78722
H         -0.01285       -0.10000        2.08706
