19
dsC7O2H10nsd_3456.xyz
O         -1.57052       -1.15595       -0.80545
C         -1.43546       -0.08274        0.15687
C         -0.65426       -0.66535        1.30898
C          0.67687       -0.71019        1.27268
C          1.44585       -0.18825        0.07694
O          1.56865       -1.21371       -0.91193
C          0.78338        1.03902       -0.52795
C          0.08929        2.07113        0.32564
C         -0.72273        1.09168       -0.48784
H         -2.06975       -0.81324       -1.55613
H         -2.43743        0.21773        0.49477
H         -1.21391       -1.09727        2.13247
H          1.24119       -1.18085        2.07231
H          2.47556        0.04839        0.36576
H          0.66153       -1.47998       -1.12397
H          1.27530        1.38624       -1.43100
H          0.11045        1.94851        1.40220
H          0.11235        3.10152       -0.01196
H         -1.23800        1.49442       -1.35729
