19
dsC7O2H10nsd_2578.xyz
C         -2.75578       -0.65095       -0.56724
C         -1.51883       -0.03395        0.02037
C         -1.15829        1.23943       -0.15134
C          0.12835        1.77448        0.41920
C          1.37150        1.10875       -0.19824
C          1.59400       -0.40775       -0.13842
O          2.65574       -0.85896       -0.47632
O          0.62294       -1.28349        0.21676
C         -0.62102       -0.91906        0.85220
H         -3.40931       -1.05765        0.21520
H         -3.33156        0.07629       -1.14549
H         -2.49988       -1.48930       -1.22744
H         -1.77108        1.90422       -0.75519
H          0.20500        2.85109        0.24067
H          0.14642        1.64911        1.51017
H          1.40125        1.33806       -1.27052
H          2.28518        1.54253        0.21945
H         -1.09379       -1.88346        1.04842
H         -0.40134       -0.45689        1.82207
