19
dsC7O2H10nsd_0190.xyz
C         -2.20632       -0.00000       -0.50168
C         -1.25595       -0.75719        0.39328
O         -0.23274       -1.49820       -0.19353
C          1.11593       -1.07509        0.00013
C          1.53216       -0.00000       -1.04076
C          1.11593        1.07509        0.00012
C          1.32468        0.00000        1.09928
O         -0.23274        1.49820       -0.19353
C         -1.25595        0.75719        0.39327
H         -1.95355       -0.00001       -1.55586
H         -3.26644        0.00000       -0.27438
H         -1.67416       -1.23297        1.28004
H          1.71276       -1.98864        0.05674
H          2.61079       -0.00000       -1.22544
H          0.99014       -0.00000       -1.98812
H          1.71276        1.98864        0.05674
H          2.36688        0.00000        1.42899
H          0.67604        0.00000        1.97590
H         -1.67417        1.23298        1.28003
