19
dsC7O2H10nsd_2472.xyz
C          0.11335        1.81313        0.96481
C          0.09770        0.63779       -0.00962
O         -1.04353        0.77840       -0.85443
C         -1.92889       -0.33697       -0.67358
C         -1.50679       -1.04568        0.64617
C         -0.04922       -0.75365        0.55988
C          1.07601       -1.43371        0.38732
C          2.06929       -0.54877       -0.32600
O          1.32961        0.61153       -0.71478
H          0.98380        1.75456        1.62428
H          0.16553        2.74496        0.39527
H         -0.79592        1.83099        1.57251
H         -2.95481        0.04265       -0.65094
H         -1.83281       -1.03451       -1.51670
H         -1.98335       -0.56599        1.50864
H         -1.75755       -2.10790        0.65340
H          1.25758       -2.48045        0.59685
H          2.92829       -0.25449        0.29783
H          2.47186       -1.04214       -1.22140
