19
dsC7O2H10nsd_5224.xyz
C         -2.79977        0.00004       -0.29548
O         -1.77829       -0.00011        0.68295
C         -0.49475       -0.00004        0.15086
C          0.04009       -1.29421       -0.53214
C          1.41286       -1.03478        0.13634
O          2.15423        0.00006       -0.54843
C          1.41279        1.03482        0.13638
C          0.04000        1.29420       -0.53209
C          0.76193       -0.00002        1.09580
H         -2.75135       -0.89168       -0.93712
H         -3.75328        0.00002        0.23707
H         -2.75128        0.89191       -0.93692
H         -0.44237       -2.16673       -0.07841
H          0.02432       -1.37641       -1.62186
H          2.04511       -1.88020        0.41087
H          2.04498        1.88028        0.41095
H         -0.44251        2.16667       -0.07832
H          0.02422        1.37644       -1.62180
H          0.75574       -0.00004        2.18135
