19
dsC7O2H10nsd_2713.xyz
C         -0.84518        1.77033       -0.97335
C         -0.04391        0.77073       -0.19382
C          1.51841        0.72184       -0.21564
O          2.01672       -0.03252        0.90200
C          1.51019       -0.73626       -0.24610
C         -0.04970       -0.76889       -0.21712
C         -0.87947       -1.73137       -1.01185
C         -0.56227        0.00346        0.99322
O         -1.95568        0.08005        1.12407
H         -1.91100        1.54224       -0.90500
H         -0.69391        2.78371       -0.58101
H         -0.56090        1.77927       -2.03206
H          2.18264        1.45340       -0.66194
H          2.16909       -1.45439       -0.72162
H         -0.72898       -2.76326       -0.66859
H         -1.94115       -1.49146       -0.90772
H         -0.63177       -1.70260       -2.07942
H         -0.01205       -0.00670        1.92958
H         -2.24866       -0.69954        1.60726
