19
dsC7O2H10nsd_3194.xyz
C         -2.61190       -0.13390       -0.24703
C         -1.20120        0.35941       -0.54963
C         -0.44234        1.06325        0.60492
C          0.85471        1.53679       -0.10967
C          1.16491        0.04411       -0.18044
O          2.43099       -0.40213       -0.50300
C          0.37781       -0.21044        1.13340
O         -0.22010       -1.41094        0.62748
C         -0.13350       -0.74845       -0.67177
H         -2.61200       -0.80695        0.61269
H         -3.27630        0.70920       -0.02986
H         -3.03072       -0.67524       -1.10278
H         -1.20845        0.99801       -1.43983
H         -0.99712        1.71512        1.27598
H          0.74907        2.11492       -1.03145
H          1.55806        2.03309        0.56500
H          2.45803       -1.35574       -0.35897
H          0.75933       -0.25543        2.15219
H         -0.13798       -1.43703       -1.51755
