19
dsC7O2H10nsd_4953.xyz
C          2.62949       -0.63758       -0.16151
C          1.28210       -1.25227        0.23960
C          0.12534       -0.29141        0.20499
C         -1.37490       -0.56356        0.47207
O         -2.07314       -1.34316       -0.47517
C         -1.38110        0.93117        0.15229
C          0.00568        1.14160        0.83103
O          0.59732        1.82757       -0.31339
C         -0.23535        0.77785       -0.89412
H          2.59822       -0.24571       -1.18195
H          2.90039        0.19269        0.49606
H          3.42387       -1.38837       -0.11017
H          1.04965       -2.09470       -0.42678
H          1.35551       -1.67826        1.24992
H         -1.63950       -0.84117        1.50239
H         -1.93854       -2.27170       -0.26227
H         -2.20951        1.63681        0.11807
H          0.24412        1.49374        1.83421
H         -0.28517        0.68649       -1.97711
