19
dsC7O2H10nsd_3793.xyz
O         -3.15059       -0.74463       -0.23229
C         -2.10890       -0.08594        0.42347
C         -1.83588        1.31946       -0.00695
C         -0.83639        0.21985       -0.32811
C          0.48463        0.17117        0.37304
O          1.06774       -1.17422        0.31835
C          2.15532       -0.68217       -0.46757
C          2.96208        0.31921        0.29532
C          1.67966        0.74739       -0.39073
H         -2.90760       -1.67377       -0.30676
H         -2.01460       -0.31080        1.48649
H         -2.42950        1.69942       -0.83001
H         -1.58134        2.05165        0.75215
H         -0.81824       -0.11337       -1.36190
H          0.37980        0.50790        1.41397
H          2.51697       -1.30105       -1.28067
H          3.01411        0.25057        1.37874
H          3.87103        0.66144       -0.19048
H          1.62907        1.52494       -1.14085
