19
dsC7O2H10nsd_2155.xyz
C          1.74689        1.32039       -0.58960
C          1.12348        0.01249       -0.12210
O          2.13612       -0.97916        0.03191
C         -0.11972       -0.54245       -0.82227
C         -0.63960       -1.13657        0.47171
C          0.26870       -0.05177        1.17955
C         -0.88225        0.97631        0.99627
C         -1.36540        0.03784       -0.10806
O         -2.61399        0.00029       -0.69315
H          2.23097        1.17822       -1.56413
H          1.00716        2.11614       -0.70726
H          2.51351        1.65183        0.11785
H          2.49978       -1.16852       -0.83958
H         -0.21323       -0.95576       -1.82058
H         -0.95202       -2.13542        0.73340
H          0.77725       -0.17090        2.13319
H         -1.57282        0.95202        1.84433
H         -0.62354        2.01536        0.76376
H         -2.63672        0.65052       -1.40405
