19
dsC7O2H10nsd_4316.xyz
C         -2.56725        0.21712        0.15161
C         -1.07195        0.24086        0.48237
C         -0.42117        1.57856        0.19109
C          0.79277        1.72649       -0.33471
C          1.68954        0.57873       -0.71700
C          1.21836       -0.75513       -0.12805
O          1.60144       -0.76752        1.24753
C         -0.30672       -0.86409       -0.23995
O         -0.84167       -1.75691       -0.85517
H         -2.73418        0.40525       -0.91286
H         -3.00126       -0.75682        0.38737
H         -3.09684        0.98471        0.72410
H         -0.94191        0.04119        1.55832
H         -1.01479        2.45477        0.44197
H          1.17973        2.72602       -0.51594
H          1.74427        0.49171       -1.81080
H          2.71544        0.75423       -0.37086
H          1.66231       -1.59818       -0.67215
H          1.40755       -1.64268        1.59981
