19
dsC7O2H10nsd_4661.xyz
C         -2.66860       -1.15718       -0.50872
C         -1.30516       -0.51604       -0.75637
C         -0.70315        0.11738        0.48519
O         -1.17991       -0.01897        1.58903
C          0.51056        1.04981        0.29218
O          0.05700        2.24910       -0.33290
C          1.61883        0.49577       -0.61491
C          2.14922       -0.77704       -0.14607
C          2.56354       -1.83126        0.25525
H         -3.40014       -0.41186       -0.18422
H         -3.04312       -1.63225       -1.41958
H         -2.60457       -1.91281        0.27774
H         -0.58497       -1.26362       -1.11723
H         -1.35076        0.25251       -1.53773
H          0.91432        1.24725        1.29303
H         -0.51646        2.70785        0.29048
H          1.22551        0.39437       -1.63305
H          2.41359        1.24866       -0.66670
H          2.93841       -2.75975        0.60891
