19
dsC7O2H10nsd_4277.xyz
C          1.40185       -1.27270        1.09091
C          1.15241       -0.70675       -0.32104
C         -0.09752       -1.27079       -1.04129
C         -1.25434       -0.26296       -0.83226
C         -1.96150       -0.30142        0.53566
O         -1.19915        0.83434        1.01212
C         -0.61701        1.04186       -0.30327
C          0.89725        0.80549       -0.24423
O          1.73555        1.66444       -0.15631
H          0.56061       -1.07192        1.75907
H          1.56256       -2.35445        1.04538
H          2.29138       -0.81111        1.52889
H          2.05695       -0.86507       -0.91533
H          0.10834       -1.36036       -2.11275
H         -0.36682       -2.27101       -0.68631
H         -1.91287       -0.19462       -1.69794
H         -3.03411       -0.07331        0.50964
H         -1.79951       -1.19701        1.14696
H         -0.88470        2.01212       -0.73091
