19
dsC7O2H10nsd_1897.xyz
C         -2.26260       -1.45705       -0.40303
C         -1.50433       -0.27842        0.13095
C         -0.58886       -0.32284        1.34454
C         -0.05430        0.15464        0.02449
C          1.15653       -0.35584       -0.70139
C          2.44325        0.20098       -0.11358
O          3.40510       -0.46683        0.16495
O         -0.40224        1.53464       -0.16475
C         -1.81463        1.18951       -0.15721
H         -2.50291       -1.33213       -1.46478
H         -1.68352       -2.37995       -0.29701
H         -3.20548       -1.60092        0.13808
H         -0.70512        0.38297        2.16323
H         -0.28698       -1.32379        1.63963
H          1.20493       -1.44770       -0.67100
H          1.10102       -0.03690       -1.75182
H          2.43711        1.30164        0.04418
H         -2.37797        1.75170        0.59713
H         -2.25437        1.35672       -1.14788
