19
dsC7O2H10nsd_2600.xyz
C         -0.60512        2.16820       -0.74596
C         -0.10789        0.94117       -0.03952
C         -0.50076        0.54599        1.33977
C         -0.86294       -0.42096        0.21075
C         -2.26893       -0.86453       -0.07248
C          0.38702       -1.13861       -0.17201
O          0.65448       -2.28695       -0.40797
C          1.17244        0.18628       -0.40348
O          2.29585        0.48224        0.39506
H         -0.54932        2.05498       -1.83403
H         -1.64484        2.38496       -0.48023
H         -0.00612        3.04369       -0.47074
H          0.25481        0.28860        2.07434
H         -1.36478        1.06197        1.74932
H         -2.36438       -1.25539       -1.09031
H         -2.57250       -1.65920        0.61742
H         -2.97625       -0.03717        0.04500
H          1.40141        0.27648       -1.47836
H          2.93645       -0.22646        0.26851
