19
dsC7O2H10nsd_0729.xyz
O          0.18284        2.12933        0.10492
C          0.56802        0.99007        0.05357
C          1.99822        0.51009       -0.20333
C          1.90428       -1.02792       -0.23454
C          0.65409       -1.35264        0.61767
C         -0.32687       -0.25622        0.24229
C         -1.68098       -0.03049        0.92879
C         -2.27185       -0.18276       -0.48569
O         -0.97652       -0.51701       -1.04194
H          2.40643        0.96340       -1.11011
H          2.61540        0.86431        0.63213
H          1.73815       -1.37254       -1.25958
H          2.80653       -1.51823        0.13725
H          0.24580       -2.34842        0.42968
H          0.88870       -1.27377        1.68776
H         -1.96503       -0.81236        1.63505
H         -1.79388        0.95308        1.38613
H         -2.99085       -0.99548       -0.63568
H         -2.67127        0.74061       -0.91903
