19
dsC7O2H10nsd_0712.xyz
O         -2.72104       -0.00001       -0.48596
C         -1.64605        0.00000        0.07068
C         -0.95799        1.31812        0.42261
C          0.39216        1.52724       -0.30572
C          1.51798        0.73517        0.32742
O          2.39825        0.00001       -0.52781
C          1.51798       -0.73517        0.32740
C          0.39216       -1.52724       -0.30572
C         -0.95798       -1.31811        0.42262
H         -1.65925        2.11286        0.15845
H         -0.79234        1.36094        1.50764
H          0.30152        1.25188       -1.36066
H          0.64106        2.59298       -0.28285
H          2.02537        1.23484        1.15464
H          2.02538       -1.23485        1.15462
H          0.30151       -1.25189       -1.36066
H          0.64106       -2.59299       -0.28284
H         -1.65924       -2.11286        0.15848
H         -0.79231       -1.36091        1.50764
