19
dsC7O2H10nsd_0252.xyz
C          1.58450       -1.20904        0.32516
C          1.66293        0.28460        0.67275
O          1.79221        1.00322       -0.57280
C          0.48978        0.60255       -0.15859
C         -0.67312        1.53535       -0.08239
C         -1.88108        0.74915        0.46978
C         -1.99030       -0.62917       -0.19352
O         -0.83987       -1.42897        0.05634
C          0.32330       -0.88435       -0.53561
H          2.45431       -1.61468       -0.19545
H          1.31030       -1.84516        1.16874
H          2.05868        0.77125        1.55698
H         -0.44353        2.41529        0.52693
H         -0.90178        1.89482       -1.09532
H         -1.76764        0.60195        1.54987
H         -2.80832        1.31001        0.30996
H         -2.83689       -1.18931        0.21324
H         -2.15151       -0.51753       -1.27950
H          0.37165       -1.11518       -1.60924
