19
dsC7O2H10nsd_1600.xyz
C          1.23790        1.81303       -0.07139
C          0.53630        0.45774        0.06034
C          1.56260       -0.58807        0.41329
O          1.88082       -1.52573       -0.27537
C         -0.54957        0.18449       -1.02019
C         -1.15201       -1.18464       -0.65366
C         -1.32279       -0.92211        0.87931
C         -0.79109        0.52575        0.89191
O         -1.43447        1.09595       -0.28378
H          1.95750        1.80175       -0.89670
H          0.49898        2.59324       -0.26158
H          1.78463        2.06513        0.84428
H          2.05979       -0.41220        1.39783
H         -0.41276        0.44943       -2.06816
H         -2.10857       -1.32796       -1.15922
H         -0.48884       -2.01716       -0.88682
H         -2.36374       -0.96165        1.20513
H         -0.73694       -1.60034        1.50675
H         -0.88873        1.13091        1.79402
