19
dsC7O2H10nsd_1655.xyz
O         -1.25821        1.45271       -0.42633
C         -0.83068        0.29758        0.21110
C         -0.05446        0.43293        1.51815
C          0.66883        0.04418        0.27272
C          1.47654       -1.23935        0.01369
C          2.65167       -0.33957       -0.47437
C          1.70363        0.89784       -0.46909
C         -1.74778       -0.84277        0.05838
O         -2.76564       -0.75807       -0.59671
H         -2.09066        1.19963       -0.85712
H          0.04877        1.45217        1.87630
H         -0.21679       -0.31563        2.28910
H          1.67366       -1.86818        0.88614
H          1.06002       -1.86646       -0.77973
H          3.45121       -0.25909        0.26533
H          3.09478       -0.60473       -1.43611
H          2.06056        1.79053        0.04972
H          1.35981        1.19073       -1.46443
H         -1.45707       -1.78114        0.57167
