19
dsC7O2H10nsd_2916.xyz
C          2.32149       -0.62683       -0.42601
C          0.82051       -0.49122       -0.65616
C         -0.01733       -1.45938        0.18904
C         -1.43079       -0.93288        0.31050
O         -1.91005       -0.02659       -0.66364
C         -1.11031        1.15261       -0.56419
C          0.16198        0.69197        0.14769
O          0.93490        1.78363        0.53479
C         -0.37927       -0.35069        1.18578
H          2.86775        0.21102       -0.87157
H          2.56501       -0.67067        0.64353
H          2.70162       -1.54903       -0.87677
H          0.60580       -0.48775       -1.73208
H          0.22985       -2.49749        0.38637
H         -2.20012       -1.59163        0.69524
H         -0.91659        1.53258       -1.57207
H         -1.62041        1.93001        0.02363
H          1.74152        1.45943        0.94789
H         -0.37083       -0.29426        2.26669
