19
dsC7O2H10nsd_0357.xyz
C          2.79150       -0.42801       -0.00984
C          1.96256        0.34179        1.03399
C          1.03503        0.68413       -0.16615
O          1.78636       -0.21782       -1.02519
C         -0.40787        0.33493       -0.08631
C         -1.45497        1.15493       -0.13737
C         -2.72938        0.37661        0.01063
O         -2.32362       -0.98211        0.14887
C         -0.90388       -1.08144        0.07616
H          3.74538        0.04389       -0.27901
H          2.96455       -1.49290        0.18025
H          1.49367       -0.28822        1.79148
H          2.44308        1.19177        1.51973
H          1.14905        1.72380       -0.50156
H         -1.42550        2.22970       -0.26950
H         -3.31412        0.68461        0.89258
H         -3.38925        0.48666       -0.86538
H         -0.51999       -1.56505        0.98878
H         -0.60673       -1.71251       -0.77352
