19
dsC7O2H10nsd_2666.xyz
O         -2.14973       -1.39365       -0.11285
C         -1.07720       -0.62092        0.36719
C         -0.89456        0.72731       -0.45260
O         -1.38106        1.93575        0.06320
C          0.61043        0.48062       -0.32404
C          2.01066        0.13846       -0.92251
C          1.82718       -0.76043        0.37734
C          1.30034        0.50754        1.08157
C          0.36378       -1.02776       -0.13241
H         -2.19359       -2.20547        0.40304
H         -1.17151       -0.41681        1.43861
H         -1.24323        0.53502       -1.47819
H         -2.33180        1.96628       -0.08567
H          2.01160       -0.38713       -1.88071
H          2.79557        0.90007       -0.87483
H          2.55991       -1.47608        0.76188
H          0.68082        0.36774        1.96676
H          2.01813        1.31722        1.23629
H          0.27664       -1.60658       -1.05721
