19
dsC7O2H10nsd_2933.xyz
C         -2.35762       -1.10093       -0.37826
C         -0.88471       -0.75039       -0.31509
C         -0.31027       -0.44065        1.05232
C          1.20780       -0.19679        0.95712
O          1.94584       -0.96136       -0.03696
C          1.88537        0.13510       -0.98638
C          0.99307        0.95907       -0.03661
C         -0.52995        0.67402        0.01912
O         -1.46901        1.69005        0.06054
H         -2.76367       -0.91888       -1.38017
H         -2.51313       -2.15976       -0.14845
H         -2.94142       -0.50741        0.33017
H         -0.25842       -1.31502       -1.00005
H         -0.85730       -0.67718        1.95761
H          1.74971       -0.10190        1.90051
H          2.88037        0.56632       -1.15145
H          1.45971       -0.16910       -1.95036
H          1.26164        1.98764        0.19774
H         -1.85425        1.78923       -0.81748
