19
dsC7O2H10nsd_2806.xyz
C          1.24961        1.68767        0.01601
C          1.35742        0.16613        0.00992
O          2.70801       -0.26424        0.04967
C          0.54886       -0.83283        0.78786
C         -0.98723       -0.64365        0.79408
C         -1.56222        0.47621       -0.04865
O         -2.95657        0.60280       -0.02796
C         -1.00699       -0.73302       -0.74164
C          0.53241       -0.87280       -0.74235
H          0.96085        2.09235       -0.95949
H          0.54546        2.05389        0.76508
H          2.23292        2.08886        0.27630
H          3.10581       -0.04632       -0.80077
H          1.05038       -1.51451        1.46357
H         -1.62676       -1.14333        1.51288
H         -1.13406        1.46409       -0.13376
H         -3.34603       -0.27753        0.01868
H         -1.64038       -1.33685       -1.38245
H          1.04909       -1.57542       -1.38512
