19
dsC7O2H10nsd_5335.xyz
C          2.71850       -0.62421        0.83531
C          1.99825       -0.71235       -0.52228
C          0.54838       -0.35644       -0.42890
C         -0.55238       -1.09516       -0.57791
C         -1.77675       -0.25019       -0.36397
C         -2.67970       -0.70442        0.78044
O         -1.25707        1.05899       -0.08535
C          0.11113        1.03537       -0.11809
O          0.78248        2.01176        0.07656
H          2.63776        0.38582        1.24393
H          2.28492       -1.32465        1.55607
H          3.77915       -0.86608        0.72144
H          2.48040       -0.01795       -1.22088
H          2.10140       -1.71839       -0.94226
H         -0.60868       -2.15076       -0.81499
H         -2.36715       -0.17591       -1.28819
H         -2.11056       -0.77359        1.71144
H         -3.49779        0.00658        0.91972
H         -3.10733       -1.68665        0.55639
