19
dsC7O2H10nsd_0659.xyz
O         -3.40333       -0.75828       -0.28740
C         -2.31773       -0.28805       -0.10930
C         -1.76975        1.15044       -0.11840
C         -0.44884        0.59745        0.50630
C          0.85656        0.98926       -0.18297
C          2.05962        0.27876        0.39037
C          3.19738       -0.13834       -0.43728
O          2.23366       -1.09241        0.01399
C         -0.95593       -0.86762        0.29608
H         -1.64387        1.53111       -1.13889
H         -2.34276        1.88443        0.45421
H         -0.39272        0.84003        1.57218
H          0.79055        0.76332       -1.25492
H          1.00977        2.07323       -0.09267
H          2.25061        0.46563        1.44942
H          3.18498        0.06746       -1.50706
H          4.18825       -0.22958        0.00515
H         -0.45448       -1.38417       -0.52863
H         -0.96085       -1.53741        1.15964
