19
dsC7O2H10nsd_5074.xyz
C         -2.42436       -0.06905       -1.13729
O         -2.03431       -0.14763        0.22385
C         -0.68580        0.05531        0.46612
C         -0.08833       -0.75992        1.54741
C          0.37051       -0.99944        0.10175
C          1.58999       -0.26413       -0.33456
O          2.50886       -0.71305       -0.97537
C          1.44114        1.20597        0.09764
C         -0.07777        1.44179        0.23695
H         -1.83275       -0.74968       -1.76409
H         -3.47449       -0.36565       -1.17718
H         -2.33323        0.94847       -1.53975
H          0.59780       -0.31378        2.25970
H         -0.71871       -1.54517        1.94795
H          0.13267       -1.95025       -0.35740
H          1.96246        1.34437        1.05237
H          1.92942        1.85848       -0.62813
H         -0.33919        2.13338        1.04374
H         -0.47270        1.86211       -0.69321
