19
dsC7O2H10nsd_1601.xyz
O         -0.70902       -1.50679       -0.00124
C         -0.46171       -0.13907       -0.00097
C         -1.77218        0.60009       -0.00078
O         -2.82584        0.00111        0.00111
C          0.60172        0.40919       -1.03176
C          0.91054        1.52875       -0.00040
C          0.60039        0.41005        1.03145
C          1.76085       -0.57552        0.78376
C          1.76204       -0.57602       -0.78167
H         -1.67652       -1.59664        0.00177
H         -1.75094        1.70381       -0.00208
H          0.33017        0.62196       -2.06613
H          1.93016        1.92162        0.00006
H          0.20541        2.35974       -0.00120
H          0.32726        0.62366        2.06523
H          2.69572       -0.20298        1.21164
H          1.55409       -1.56315        1.19779
H          2.69744       -0.20346       -1.20836
H          1.55620       -1.56394       -1.19545
