19
dsC7O2H10nsd_0587.xyz
C         -1.86291        0.30313       -0.48210
O         -1.19117       -0.89877       -0.82439
C         -0.32268       -1.24360        0.25432
C          1.12662       -1.36486       -0.25717
C          1.99764       -0.13652        0.06907
C          1.44689        1.20998       -0.35428
C          0.22222        1.68270       -0.12482
C         -0.90249        0.93392        0.53966
O         -0.46421       -0.23390        1.23673
H         -2.00091        0.89887       -1.38818
H         -2.84161        0.09819       -0.02473
H         -0.66459       -2.18254        0.70932
H          1.59623       -2.24887        0.18920
H          1.07954       -1.53405       -1.33713
H          2.17656       -0.11695        1.15077
H          2.97737       -0.28038       -0.39783
H          2.14867        1.86622       -0.86440
H         -0.03506        2.68382       -0.46637
H         -1.42479        1.56861        1.26253
