19
dsC7O2H10nsd_5182.xyz
O         -2.43809        0.35139        0.23078
C         -1.69206       -0.58764       -0.55089
C         -0.23949       -0.58054       -0.16333
C          0.23842       -0.93467        1.27903
C          1.36245        0.07186        1.05372
C          1.78042       -0.05395       -0.45130
C          0.89920       -1.13890       -1.07030
C          0.60117        0.76648       -0.04838
O          0.26281        2.05939       -0.34284
H         -2.51372       -0.00544        1.12122
H         -2.12734       -1.59678       -0.48119
H         -1.80546       -0.25442       -1.58815
H         -0.45780       -0.58214        2.04797
H          0.49142       -1.98397        1.47106
H          2.05508        0.49127        1.77190
H          2.75682        0.28934       -0.76738
H          0.70797       -0.94093       -2.12925
H          1.17565       -2.19108       -0.93580
H         -0.58106        2.23212        0.09479
