19
dsC7O2H10nsd_5978.xyz
C         -3.32161        0.07990        0.00022
C         -1.88296       -0.40303       -0.00029
O         -1.03321        0.74786       -0.00009
C          0.30088        0.48133       -0.00003
C          1.39772        1.55289       -0.00002
C          2.19425        0.22998        0.00006
C          1.15646       -0.50587        0.89789
O          1.01435       -1.64581        0.00007
C          1.15654       -0.50594       -0.89781
H         -4.00608       -0.77364       -0.00006
H         -3.52454        0.68732        0.88685
H         -3.52488        0.68815       -0.88578
H         -1.67048       -1.01984        0.88307
H         -1.67091       -1.01918       -0.88423
H          1.47317        2.16922       -0.89960
H          1.47310        2.16929        0.89951
H          3.26791        0.06280        0.00012
H          1.16287       -0.67797        1.97392
H          1.16306       -0.67811       -1.97382
