19
dsC7O2H10nsd_0718.xyz
O          2.87822       -0.53130       -0.03108
C          1.71428       -0.23803       -0.01860
C          0.60911       -1.30940       -0.08468
C         -0.70293       -0.70393        0.35889
C         -2.16994       -1.08128        0.02116
C         -2.45033        0.45950       -0.04671
C         -0.93898        0.62736       -0.35569
C          0.05260        1.65037        0.12424
O          1.39071        1.08842        0.02934
H          0.55990       -1.64621       -1.12817
H          0.96056       -2.15815        0.50758
H         -0.65822       -0.50358        1.43867
H         -2.25813       -1.54209       -0.96769
H         -2.72917       -1.67776        0.74456
H         -3.16715        0.82539       -0.78395
H         -2.71606        0.85540        0.93830
H         -0.79322        0.47263       -1.43318
H          0.08882        2.56962       -0.46727
H         -0.12162        1.92019        1.17339
