19
dsC7O2H10nsd_1445.xyz
C          0.87828        1.76977        0.23508
C          0.94093        0.26441       -0.02676
C          2.37660       -0.11652       -0.39718
C          0.22708       -0.67891        0.99867
C          0.00882       -1.70686       -0.13050
C         -0.18298       -0.38290       -0.95014
C         -1.41652        0.13297       -0.22432
O         -2.43795        0.62220       -0.59965
O         -1.10398       -0.08670        1.10208
H          1.13236        2.32356       -0.67509
H         -0.10446        2.10251        0.57186
H          1.60809        2.05015        1.00252
H          2.70585        0.47365       -1.25888
H          3.05169        0.11879        0.43323
H          2.51515       -1.16911       -0.64727
H          0.59929       -0.90740        1.99587
H          0.88433       -2.28551       -0.41407
H         -0.86014       -2.35826       -0.02091
H         -0.18997       -0.32414       -2.03577
