19
dsC7O2H10nsd_3403.xyz
O          2.86734       -0.37174        0.25355
C          1.51177       -0.07634        0.43381
C          0.75673        0.55856       -0.70754
O         -0.26937        1.50388       -0.57575
C         -1.14849        1.32141        0.52253
C         -1.67059       -0.09665        0.66312
C         -2.05137       -0.90692       -0.54604
C         -0.78955       -1.24517        0.22495
C          0.53230       -0.89849       -0.38267
H          3.36072        0.45436        0.30042
H          1.21477        0.15092        1.45721
H          1.34782        0.79062       -1.58725
H         -0.65445        1.62443        1.45988
H         -1.97232        2.02167        0.34830
H         -2.26202       -0.24581        1.56231
H         -2.90024       -1.57696       -0.46658
H         -1.92540       -0.44491       -1.51921
H         -0.81061       -2.14522        0.83349
H          0.97316       -1.62459       -1.05996
