19
dsC7O2H10nsd_4723.xyz
C          3.74740       -0.33430       -0.23204
C          2.31324       -0.29814        0.01700
C          1.12894       -0.26508        0.23551
C         -0.31379       -0.27833        0.45048
C         -0.97664       -1.53566       -0.16972
O         -2.32487       -1.66814        0.20724
C         -0.99609        1.01667       -0.04558
C         -0.30037        2.32659        0.24240
O         -2.06284        0.97323       -0.62098
H          4.18236        0.67066       -0.19759
H          4.26510       -0.94514        0.51549
H          3.96873       -0.75726       -1.21796
H         -0.52017       -0.30913        1.53292
H         -0.85041       -1.49408       -1.26177
H         -0.44754       -2.42127        0.19250
H         -2.77209       -0.90192       -0.17631
H         -0.96683        3.15720        0.00817
H          0.01758        2.37358        1.28911
H          0.60882        2.39613       -0.36295
