19
dsC7O2H10nsd_6030.xyz
C         -3.42873       -0.20255        0.31178
O         -2.15461       -0.38159       -0.25925
C         -1.25166        0.65022        0.07316
C          0.09962        0.33136       -0.56650
C          1.13843        1.40448       -0.29389
C          2.16962        0.94622        0.42136
C          2.01416       -0.51860        0.66749
O          1.98279       -1.29440       -0.55405
C          0.74140       -0.91702        0.03817
H         -3.90232        0.73073       -0.03195
H         -4.04819       -1.04751        0.00173
H         -3.38432       -0.17792        1.41219
H         -1.62318        1.62410       -0.28870
H         -1.14214        0.73252        1.16841
H         -0.06155        0.19595       -1.64353
H          1.03638        2.41529       -0.67411
H          3.02886        1.52173        0.74267
H          2.46003       -1.02153        1.51995
H          0.11402       -1.73002        0.39045
