19
dsC7O2H10nsd_5649.xyz
C          2.85866        0.06833       -0.37118
C          1.83646       -1.03513       -0.08397
C          0.51596       -0.50335        0.46303
C         -0.63081       -1.54118        0.68284
C         -1.55621       -0.66155       -0.15980
O         -2.71910       -0.66883       -0.42757
C         -0.38277        0.30797       -0.51407
C         -0.64805        1.76200       -0.22198
O         -0.15537        2.36962        0.69478
H          3.79157       -0.34945       -0.76121
H          2.47994        0.78205       -1.11097
H          3.09453        0.63314        0.53641
H          1.64419       -1.61198       -0.99975
H          2.25595       -1.74659        0.63880
H          0.69257        0.09212        1.36294
H         -0.45258       -2.51236        0.20678
H         -0.96711       -1.71777        1.70828
H         -0.12894        0.19802       -1.57689
H         -1.37384        2.24398       -0.91135
