19
dsC7O2H10nsd_2717.xyz
C          1.47890       -1.39332        1.02360
C          0.46022       -0.82316        0.08278
C         -0.85824       -1.50123       -0.32321
C         -1.53321       -0.11253       -0.19318
O         -2.68193        0.23335       -0.14894
C         -0.25052        0.58754        0.12212
C         -0.10331        1.80920        0.98154
C          0.76983        0.20871       -0.95306
O          1.95968        0.93193       -0.82672
H          2.27184       -0.66744        1.22161
H          1.02691       -1.67570        1.98023
H          1.94081       -2.29448        0.60095
H         -0.88690       -1.99122       -1.30266
H         -1.25544       -2.18757        0.43130
H          0.94448        2.10017        1.07247
H         -0.65198        2.64651        0.53696
H         -0.51477        1.64068        1.98161
H          0.44499        0.06587       -1.98690
H          2.67598        0.38967       -1.17373
