19
dsC7O2H10nsd_2740.xyz
C         -1.54663       -1.62407       -0.86666
C         -0.38799       -0.65370       -0.81254
C         -0.48201        0.72086       -0.26411
C         -0.10458        1.99397       -0.94522
O         -1.39171        0.79198        0.83342
C         -0.58402       -0.12239        1.62026
C          0.38850       -0.35317        0.47275
C          1.84863       -0.38756        0.53645
O          2.57873       -0.43735       -0.43082
H         -2.05158       -1.55177       -1.83544
H         -1.20538       -2.65647       -0.74283
H         -2.28607       -1.40368       -0.09339
H          0.31593       -0.71564       -1.63976
H         -0.93582        2.35520       -1.56162
H          0.14302        2.77062       -0.21628
H          0.75776        1.82724       -1.59606
H         -0.13178        0.40459        2.46881
H         -1.16285       -0.97871        1.98334
H          2.26923       -0.33209        1.56685
