19
dsC7O2H10nsd_3077.xyz
O         -2.56968        0.54950       -0.17766
C         -1.17790        0.51039       -0.38582
C         -0.65853       -0.94317       -0.65930
C         -0.73068       -1.13554        0.88191
C         -0.26577        0.34451        0.89772
C          1.10497        0.33357        0.19985
O          1.71541        1.56488       -0.04607
C          1.89249       -0.94647        0.08457
C          0.81895       -0.62177       -0.94018
H         -2.80262        1.43728        0.11076
H         -0.85503        1.28241       -1.09572
H         -1.18167       -1.60775       -1.34643
H         -1.76309       -1.22584        1.21533
H         -0.11707       -1.89856        1.36106
H         -0.37599        0.98275        1.77666
H          2.20395        1.81563        0.74544
H          2.90194       -0.80040       -0.28663
H          1.79742       -1.76416        0.78926
H          1.12513       -0.38551       -1.95230
