19
dsC7O2H10nsd_1633.xyz
O         -1.79655        1.47455        0.09049
C         -1.14896        0.23543       -0.09815
C         -1.65688       -0.93190        0.70405
C         -2.00973       -0.79965       -0.76388
C          0.28837        0.40808       -0.51637
C          1.31668       -0.75645       -0.49635
C          2.46986        0.27617       -0.51353
C          1.40997        0.70288        0.52875
O          1.34462       -0.70529        0.98652
H         -1.50865        1.82598        0.94025
H         -0.95283       -1.69112        1.01617
H         -2.44478       -0.71171        1.41612
H         -1.54576       -1.47823       -1.47172
H         -3.01878       -0.49466       -1.01543
H          0.32938        1.04304       -1.40794
H          1.26260       -1.74103       -0.96274
H          3.40650       -0.08417       -0.08822
H          2.60505        0.89327       -1.40488
H          1.46687        1.47715        1.29518
