19
dsC7O2H10nsd_4244.xyz
C         -2.62051       -0.58180        0.06443
C         -1.30904       -0.02619       -0.46848
O         -0.96338        1.17721        0.26232
C          0.40985        1.07144        0.52415
O          1.12698        1.02931       -0.72311
C          1.24454       -0.39882       -0.88959
C          1.98101       -0.81497        0.40196
C          0.63820       -0.37420        1.03144
C         -0.08506       -0.92112       -0.24499
H         -2.95314       -1.43139       -0.54096
H         -2.51322       -0.91234        1.10217
H         -3.39567        0.18890        0.03049
H         -1.41516        0.23439       -1.52999
H          0.72540        1.92373        1.12430
H          1.57480       -0.63489       -1.90010
H          2.14411       -1.89188        0.48791
H          2.88806       -0.25879        0.64865
H          0.32726       -0.59900        2.04977
H         -0.24516       -1.99695       -0.29941
