19
dsC7O2H10nsd_4898.xyz
C         -2.82985        0.23112       -0.47175
C         -1.63708       -0.54048        0.05214
C         -0.85182        0.05029        1.24262
C          0.36714        0.04179        0.28185
C          1.40807       -1.05318        0.55850
O          2.13683       -1.35214       -0.60646
O         -0.47826       -0.41402       -0.82171
C          0.98281        1.33052        0.00075
C          1.48385        2.40509       -0.19598
H         -2.58062        1.28904       -0.59613
H         -3.14466       -0.16517       -1.44215
H         -3.67329        0.14648        0.22243
H         -1.89513       -1.59939        0.18315
H         -1.17278        1.04839        1.54103
H         -0.74887       -0.58415        2.12475
H          2.11989       -0.72068        1.32067
H          0.87625       -1.93811        0.94595
H          1.47732       -1.48652       -1.29976
H          1.93461        3.34841       -0.38333
