19
dsC7O2H10nsd_4542.xyz
O          2.42891       -1.21248       -0.21857
C          1.22952       -0.44815       -0.31321
C          1.40596        0.91915        0.35473
C          0.44883        2.01126       -0.12796
C         -1.03097        1.77524       -0.03547
C         -1.75693        0.65100        0.03551
C         -1.36859       -0.77977        0.03749
O         -2.24788       -1.61034       -0.10581
C          0.06178       -1.25863        0.25978
H          2.58183       -1.40725        0.71315
H          1.08569       -0.30792       -1.39207
H          1.31551        0.80264        1.44390
H          2.43056        1.24899        0.15495
H          0.67263        2.93858        0.41421
H          0.67278        2.24763       -1.18050
H         -1.60802        2.69871       -0.08343
H         -2.83982        0.74802        0.03585
H          0.19581       -1.32827        1.35129
H          0.10717       -2.27907       -0.12755
