19
dsC7O2H10nsd_4109.xyz
C         -2.91248       -0.44919       -0.22109
C         -1.42085       -0.31100       -0.45620
O         -1.01346        1.07540       -0.60278
C         -0.19029        1.02227        0.58198
C          1.29021        1.18579        0.26957
C          1.78072       -0.21547       -0.11754
O          2.75534       -0.46976       -0.77306
C          0.81978       -1.24791        0.49672
C         -0.48737       -0.50091        0.76323
H         -3.22051        0.09823        0.67547
H         -3.46910       -0.04937       -1.07410
H         -3.18527       -1.50319       -0.09691
H         -1.12114       -0.89170       -1.33994
H         -0.55586        1.70790        1.35307
H          1.48296        1.91072       -0.52392
H          1.84920        1.50404        1.16010
H          0.72119       -2.11689       -0.15917
H          1.27572       -1.60119        1.43072
H         -0.99054       -0.80508        1.68150
