19
dsC7O2H10nsd_4846.xyz
C         -2.60306       -0.63857        0.33511
C         -1.44464       -0.54970       -0.66613
C         -0.33505        0.37241       -0.19237
O         -0.87134        1.65752       -0.09017
C          0.63338        0.01834        1.02873
O          1.57466        0.98014        0.43033
C          1.12623        0.37356       -0.83432
C          1.56520       -1.07183       -0.66754
C          1.22752       -1.31473        0.60547
H         -3.40426       -1.27325       -0.05457
H         -2.27182       -1.06985        1.28652
H         -3.01602        0.35163        0.54036
H         -1.03934       -1.54344       -0.86502
H         -1.81334       -0.15172       -1.61916
H         -0.14359        2.21433        0.22120
H          0.38126        0.22345        2.06833
H          1.38108        0.94666       -1.72502
H          1.98791       -1.71853       -1.42197
H          1.29404       -2.21748        1.19432
