19
dsC7O2H10nsd_5807.xyz
O          3.09675        0.01534       -0.39109
C          2.08379       -0.79229        0.19034
C          0.72960       -0.20963       -0.20006
C          0.57625        1.24908        0.25710
C         -0.81748        1.76647        0.04341
C         -1.88683        0.97450       -0.11127
C         -1.79436       -0.49851       -0.03222
O         -2.75798       -1.21556       -0.21388
C         -0.42603       -1.06314        0.34007
H          3.95291       -0.34021       -0.13657
H          2.15037       -1.83310       -0.16416
H          2.17282       -0.81333        1.28989
H          0.67780       -0.21716       -1.29740
H          0.82819        1.33501        1.32706
H          1.30073        1.88247       -0.26289
H         -0.94344        2.84709        0.01690
H         -2.88045        1.37523       -0.28596
H         -0.37971       -1.09523        1.43959
H         -0.37895       -2.09793       -0.01091
