19
dsC7O2H10nsd_2885.xyz
C          0.90579       -1.55069        1.22429
C          0.71204       -0.52922        0.15243
O          1.88441        0.14815       -0.41371
C          0.75139        0.71933       -1.12765
C         -0.04255       -0.61383       -1.21908
C         -1.30296        0.04783       -0.62540
O         -2.13130       -0.72439        0.22063
C         -0.17987        0.77619        0.12634
C         -0.25384        1.84599        1.17482
H          1.53469       -2.37135        0.86469
H          1.39107       -1.10392        2.09801
H         -0.06694       -1.94869        1.52285
H          0.93920        1.47375       -1.89065
H          0.06198       -1.38850       -1.97917
H         -1.89676        0.66193       -1.31722
H         -2.71674       -1.25464       -0.32884
H         -0.82463        1.50245        2.04360
H          0.75389        2.11639        1.50695
H         -0.74059        2.74888        0.79004
