19
dsC7O2H10nsd_1272.xyz
C          1.83611        0.53196        1.33130
C          1.39610       -0.44766        0.23149
C          2.13671       -0.18945       -1.09207
C         -0.08534       -0.36469        0.01334
O         -0.75825       -1.44139       -0.68988
C         -1.26917       -1.06511        0.58561
C         -2.22925        0.10221        0.32359
C         -0.98424        0.85068       -0.24850
O         -0.77897        1.97897       -0.58574
H          1.33025        0.32345        2.27958
H          2.91426        0.45495        1.50018
H          1.61214        1.56442        1.04546
H          1.61152       -1.47313        0.55798
H          3.21789       -0.28247       -0.95132
H          1.82735       -0.90532       -1.85871
H          1.92588        0.81944       -1.46067
H         -1.29156       -1.81208        1.36969
H         -3.05145       -0.11020       -0.36216
H         -2.60403        0.61265        1.21625
