19
dsC7O2H10nsd_2300.xyz
C         -2.00585       -0.46290       -1.10486
C         -0.90564       -0.41390       -0.07038
C         -1.19995        0.15936        1.32561
O          0.00032        0.96701        1.31291
C          0.29539        0.61671       -0.06774
C          0.53086        1.80198       -0.95829
C          1.27000       -0.58481       -0.04873
O          2.46076       -0.68609       -0.08931
C          0.10664       -1.59764       -0.01080
H         -2.53118        0.49522       -1.17683
H         -1.61060       -0.70490       -2.09740
H         -2.74775       -1.22972       -0.85237
H         -2.09657        0.79098        1.37807
H         -1.21476       -0.55257        2.15958
H          1.42687        2.33716       -0.62769
H          0.68930        1.48711       -1.99474
H         -0.31674        2.49296       -0.92334
H          0.10170       -2.22590       -0.90847
H          0.06240       -2.25065        0.86568
