19
dsC7O2H10nsd_2882.xyz
O          2.41513       -0.25988       -0.43041
C          1.02207       -0.28229       -0.69109
C          0.41162        1.10576       -0.58011
C         -1.08948        1.13620       -0.31088
C         -1.92541       -0.11035       -0.56190
C         -1.18606       -1.39085       -0.08352
C          0.22383       -1.03699        0.39440
O          0.12719       -0.08241        1.47007
C         -0.11668        1.15628        0.83558
H          2.52328        0.09380        0.46058
H          0.90819       -0.74806       -1.67400
H          0.91274        1.93617       -1.06204
H         -1.57716        2.08096       -0.53348
H         -2.88399       -0.01286       -0.04185
H         -2.16245       -0.17588       -1.62955
H         -1.71943       -1.85653        0.74978
H         -1.12715       -2.13634       -0.88380
H          0.76652       -1.90626        0.77106
H         -0.01852        1.99675        1.51114
