19
dsC7O2H10nsd_0433.xyz
C          2.50905       -0.14053       -0.61109
C          2.24452       -0.55641        0.81541
C          1.44027        0.55755        0.19406
C         -0.00007        0.36728       -0.13202
C         -0.89321        1.47886       -0.66572
C         -1.17929        0.81521        0.67095
O         -2.09479       -0.25217        0.70316
C         -1.69156       -1.15039       -0.31306
O         -0.31308       -0.94385       -0.56034
H          3.41880        0.40575       -0.83418
H          2.17934       -0.81393       -1.39340
H          1.73936       -1.50227        0.96934
H          2.97203       -0.29713        1.57646
H          1.66647        1.56699        0.52399
H         -0.48880        2.48535       -0.62765
H         -1.54609        1.28918       -1.51066
H         -1.13478        1.35304        1.60952
H         -1.85091       -2.17929        0.02601
H         -2.27077       -0.96889       -1.23316
