19
dsC7O2H10nsd_1764.xyz
C         -2.68536       -0.02579        0.00000
C         -1.18759       -0.11134       -0.00002
C         -0.32312       -0.82223       -1.07027
C          0.80002       -0.56519       -0.00000
C          2.15865       -1.21425        0.00001
C         -0.32315       -0.82235        1.07018
C          0.74638        0.96173        0.00006
O          1.61216        1.78496       -0.00003
O         -0.59619        1.23817        0.00007
H         -3.04149        0.50556        0.88748
H         -3.04125        0.50852       -0.88579
H         -3.11911       -1.02988       -0.00173
H         -0.55733       -1.88393       -1.17835
H         -0.23289       -0.33828       -2.04585
H          2.73096       -0.91261        0.88272
H          2.07660       -2.30519       -0.00148
H          2.73210       -0.91022       -0.88114
H         -0.55737       -1.88405        1.17818
H         -0.23297       -0.33846        2.04579
