19
dsC7O2H10nsd_5359.xyz
C         -3.06003       -0.22538        0.35494
C         -2.01919        0.17412       -0.70618
C         -0.64089        0.32966       -0.15358
C          0.19301        1.37462       -0.13452
C          1.50652        0.83319        0.40708
C          2.07456       -0.10851       -0.70406
O          1.12608       -1.18151       -0.68683
C          0.22201       -0.81757        0.38853
O          1.05634       -0.18416        1.32592
H         -4.04846       -0.34347       -0.09904
H         -2.79942       -1.17389        0.83538
H         -3.13160        0.53530        1.13799
H         -1.99778       -0.59315       -1.49266
H         -2.32534        1.10739       -1.19156
H          0.04652        2.36103       -0.55391
H          2.21035        1.51542        0.87882
H          2.11030        0.36200       -1.69162
H          3.06537       -0.48902       -0.43404
H         -0.24519       -1.71704        0.78468
