19
dsC7O2H10nsd_6087.xyz
C          4.60639       -0.25134       -0.00002
C          3.14863       -0.71814        0.00004
C          2.16961        0.44673       -0.00005
O          0.85046       -0.07187        0.00001
C         -0.12781        0.94125        0.00005
C         -1.46100        0.35971        0.00001
C         -2.58403       -0.08349       -0.00000
C         -3.90344       -0.65887       -0.00000
O         -4.93035       -0.01948       -0.00002
H          5.29007       -1.10471        0.00001
H          4.83231        0.35475       -0.88426
H          4.83235        0.35486        0.88413
H          2.94700       -1.34104       -0.87857
H          2.94701       -1.34088        0.87877
H          2.32753        1.08436        0.88707
H          2.32751        1.08421       -0.88729
H         -0.02254        1.59591        0.88363
H         -0.02254        1.59599       -0.88347
H         -3.90954       -1.76780       -0.00000
