19
dsC7O2H10nsd_2758.xyz
C         -2.18488       -1.47395       -0.39739
C         -0.90015       -0.69993       -0.58995
C          0.09361       -0.62521        0.59383
C          1.52242       -0.45337        0.22313
O          2.47252       -1.10495        0.57720
C          1.58449        0.79119       -0.67757
O          0.31942        1.42909       -0.60889
C         -0.61872        0.60796        0.07430
C         -1.62044        1.43260        0.83050
H         -2.58336       -1.36244        0.61484
H         -2.95352       -1.13349       -1.09955
H         -2.02215       -2.54284       -0.57027
H         -0.45041       -0.82151       -1.57264
H         -0.15919       -1.13625        1.51429
H          2.36581        1.47240       -0.32322
H          1.83426        0.49997       -1.70800
H         -1.11724        2.04679        1.58284
H         -2.14654        2.10236        0.14245
H         -2.36117        0.80617        1.33166
