19
dsC7O2H10nsd_4125.xyz
C          2.59876       -1.26034       -0.04997
C          1.51350       -0.34573        0.48363
O          1.68804        1.02469        0.01654
C          0.46570        0.97849       -0.74086
C         -0.73873        1.58600        0.01393
C         -1.02982        0.16257        0.62498
C         -2.40641       -0.34274        0.29343
O         -2.65142       -1.24658       -0.46563
C          0.13494       -0.43875       -0.19749
H          2.44117       -2.28610        0.30126
H          2.60341       -1.26376       -1.14438
H          3.58065       -0.92334        0.29629
H          1.49030       -0.38149        1.58201
H          0.61120        1.25036       -1.78941
H         -0.48087        2.37551        0.72157
H         -1.53528        1.93864       -0.64876
H         -0.90497        0.12195        1.71398
H         -3.22765        0.21683        0.79958
H         -0.09841       -1.31051       -0.80536
