19
dsC7O2H10nsd_2404.xyz
C         -0.80592        1.90048       -0.86811
C         -0.48131        0.57044       -0.22847
C         -0.68781        0.42671        1.29852
O         -1.48320       -0.77540        1.13296
C         -1.35941       -0.71838       -0.29442
C         -0.16637       -1.55301       -0.82475
C          0.71025       -0.25002       -0.80497
C          2.02832       -0.30077       -0.08533
O          2.37969        0.46167        0.78081
H         -0.85193        1.82074       -1.96005
H         -1.76999        2.28450       -0.51812
H         -0.03911        2.64408       -0.62146
H          0.20124        0.26595        1.91259
H         -1.28567        1.23709        1.73490
H         -2.31994       -0.80382       -0.81087
H          0.13656       -2.33822       -0.12812
H         -0.30252       -1.98525       -1.81833
H          0.93690        0.06095       -1.83372
H          2.69609       -1.12893       -0.42187
