19
dsC7O2H10nsd_3923.xyz
O         -2.26160       -0.47071       -0.61059
C         -1.39075        0.41375        0.04792
C         -0.88825       -0.16671        1.43518
C          0.45953       -0.43641        0.74138
C          1.97839       -0.20737        0.47690
C          1.27544       -0.33547       -0.96553
C          0.51031       -1.53388       -0.37151
C          0.14827        0.57446       -0.38101
O          0.40770        1.95359       -0.23654
H         -2.49094       -0.08078       -1.46084
H         -1.82712        1.41667        0.12537
H         -0.85735        0.62067        2.19153
H         -1.43971       -1.02838        1.81835
H          2.39044        0.76357        0.76166
H          2.67824       -1.01017        0.72930
H          1.79009       -0.28910       -1.93280
H         -0.42898       -1.80791       -0.84595
H          1.11437       -2.41012       -0.12315
H          1.34448        2.11227       -0.38641
