19
dsC7O2H10nsd_4265.xyz
C          0.65253        2.09512       -0.82549
C          0.13325        1.14983        0.24785
C          1.16085        0.52085        1.24516
C          0.66838       -0.89250        0.87379
O          1.42858       -1.50824       -0.17697
C          0.49823       -1.05214       -1.18159
C         -0.35310       -0.27192       -0.16060
C         -1.81448       -0.56754       -0.09881
O         -2.65627        0.19899        0.30187
H         -0.13068        2.34373       -1.54980
H          0.99575        3.03148       -0.37299
H          1.50000        1.66912       -1.37276
H         -0.68674        1.62799        0.78967
H          2.21355        0.66639        0.99007
H          1.00357        0.79794        2.29036
H          0.39781       -1.59376        1.66765
H          0.98229       -0.46779       -1.97136
H         -0.03626       -1.89614       -1.63960
H         -2.09170       -1.59504       -0.43234
