19
dsC7O2H10nsd_2993.xyz
O         -3.21600       -0.74607       -0.00445
C         -2.05637       -0.11702        0.45538
C         -1.33494        0.77974       -0.51117
O         -0.21912        1.40391        0.12044
C          0.40789        0.09240        0.34105
C          1.68546       -0.04818       -0.42742
C          2.98394        0.40027        0.19262
C          2.70619       -1.06959        0.01831
C         -0.81342       -0.61445       -0.24388
H         -3.93080       -0.10066        0.01450
H         -2.02410        0.12111        1.52138
H         -1.78362        1.24941       -1.37984
H          0.58796       -0.07268        1.41264
H          1.57609        0.10036       -1.49775
H          3.71944        0.86820       -0.45160
H          2.94885        0.80882        1.19709
H          3.24780       -1.61457       -0.74636
H          2.48622       -1.65407        0.90594
H         -0.81931       -1.50773       -0.85327
