19
dsC7O2H10nsd_0401.xyz
C          2.03837       -0.01037        0.84427
C          2.22809       -0.22536       -0.64772
C          0.85974       -0.00176       -0.08963
O          0.28098        1.24601       -0.41592
C         -1.03020        1.43386        0.12126
C         -1.78199        0.10683        0.15174
C         -1.32311       -0.79680       -1.01210
C         -0.17974       -1.09161       -0.01731
O         -1.07605       -0.75784        1.08998
H          2.16731       -0.85211        1.51635
H          2.34206        0.94896        1.24672
H          2.65327        0.59188       -1.21924
H          2.48928       -1.21615       -1.00448
H         -0.98360        1.83697        1.14345
H         -1.52238        2.16580       -0.52846
H         -2.84294        0.21712        0.39069
H         -1.98062       -1.65645       -1.14248
H         -1.07315       -0.33547       -1.96829
H          0.24434       -2.09469        0.07017
