19
dsC7O2H10nsd_1895.xyz
C          2.25933       -1.33482       -0.27073
C          1.39790       -0.17869        0.14553
C          0.46775       -0.22660        1.34594
C         -0.09241        0.07171       -0.00834
C          0.12397        1.52446       -0.40815
C          1.66184        1.29883       -0.20196
O         -1.02640       -0.78915       -0.61882
C         -2.32017       -0.56360       -0.31855
O         -2.74037        0.29806        0.39990
H          2.52669       -1.26939       -1.33145
H          3.19129       -1.36051        0.30619
H          1.74491       -2.28803       -0.11332
H          0.25541       -1.22930        1.70413
H          0.49144        0.53669        2.12098
H         -0.12217        1.70803       -1.45638
H         -0.37377        2.27224        0.21390
H          2.22902        1.42415       -1.12746
H          2.13685        1.89122        0.58615
H         -2.93477       -1.30409       -0.85378
