19
dsC7O2H10nsd_3462.xyz
C          2.51930       -0.37367        0.28833
C          1.26000        0.02860       -0.49094
C          0.89996        1.50287       -0.39655
C         -0.37556        1.70708       -0.05857
C         -1.07678        0.41377        0.19258
O         -2.39325        0.25099       -0.22162
C         -0.55025       -0.40338        1.36834
C         -0.03356       -0.65345       -0.03365
O         -0.45611       -1.80233       -0.71263
H          2.71622       -1.44576        0.18153
H          3.39869        0.16310       -0.08192
H          2.41671       -0.15118        1.35510
H          1.41463       -0.24217       -1.54597
H          1.63374        2.28156       -0.57515
H         -0.86646        2.66656        0.05348
H         -2.40467       -0.52995       -0.79107
H          0.08520        0.06639        2.11153
H         -1.24212       -1.15129        1.74447
H         -0.21569       -2.57743       -0.19512
