19
dsC7O2H10nsd_4344.xyz
C          2.30149        0.85582        0.55202
C          0.82098        0.48449        0.43822
C          0.04838        1.52011       -0.40847
C         -1.44667        1.37054       -0.43808
C         -2.16611        0.34649        0.01680
C         -1.63194       -0.92763        0.62168
O         -0.52983       -1.51965       -0.08202
C          0.67490       -0.90634       -0.17527
O          1.56290       -1.47143       -0.75540
H          2.77167        0.87104       -0.43424
H          2.41026        1.84376        1.01020
H          2.84382        0.12888        1.16110
H          0.37766        0.47658        1.44125
H          0.28410        2.51863       -0.01632
H          0.44319        1.51615       -1.43502
H         -1.97944        2.20930       -0.88196
H         -3.24946        0.39899       -0.05226
H         -1.36819       -0.79664        1.68007
H         -2.40443       -1.69890        0.58507
