19
dsC7O2H10nsd_0148.xyz
C          1.88726       -0.69354       -0.07340
C          0.60469       -1.38585       -0.55408
C         -0.58415       -1.26321        0.38756
C         -1.81077       -0.51050       -0.05268
O         -1.43011        0.52933       -0.96017
C         -0.66622        1.18966        0.10555
C          0.81772        1.46923       -0.20445
O          1.69942        0.60186        0.47809
C         -0.97227        0.04473        1.06550
H          2.36296       -1.26590        0.73035
H          2.60038       -0.64837       -0.91359
H          0.31361       -0.96030       -1.51916
H          0.83580       -2.44154       -0.73510
H         -0.80113       -2.12129        1.01858
H         -2.82424       -0.88894       -0.11160
H         -1.18866        2.11867        0.36085
H          0.96672        1.45262       -1.29484
H          1.07683        2.47226        0.14972
H         -1.15441        0.13006        2.12736
