19
dsC7O2H10nsd_0365.xyz
C         -1.73998       -1.18915        0.00000
C         -2.31962        0.20846       -0.00000
C         -0.83597        0.00065        0.00000
C          0.14393        0.55607        1.04597
C          0.49449        1.65321        0.00000
C          0.14393        0.55608       -1.04597
O          1.27914       -0.30461       -1.18348
C          1.51038       -1.04600       -0.00000
O          1.27914       -0.30461        1.18348
H         -1.81388       -1.77317        0.91197
H         -1.81388       -1.77317       -0.91197
H         -2.78722        0.56833       -0.91126
H         -2.78722        0.56834        0.91126
H         -0.19428        0.81825        2.05006
H         -0.22042        2.47897        0.00000
H          1.52412        2.01341        0.00000
H         -0.19427        0.81826       -2.05006
H          0.87455       -1.94258       -0.00000
H          2.56334       -1.33887       -0.00000
