19
dsC7O2H10nsd_3869.xyz
C         -2.61767       -0.78986        0.14012
C         -1.29660       -0.51308       -0.56377
C         -0.06693       -1.43673       -0.23659
C          0.69129       -0.20172        0.24129
O         -0.09005        0.42226        1.27987
C         -0.47480        0.69763       -0.05925
C         -0.57154        2.12334       -0.49965
C          2.12750        0.11028        0.17724
O          2.94119       -0.59185       -0.37489
H         -2.47490       -0.80832        1.22426
H         -3.36456       -0.02371       -0.09495
H         -3.02670       -1.75764       -0.16764
H         -1.43756       -0.44380       -1.64712
H         -0.22300       -2.19778        0.53147
H          0.38319       -1.89097       -1.12031
H          0.23686        2.72179       -0.07344
H         -0.53070        2.19595       -1.59061
H         -1.52334        2.55560       -0.16970
H          2.40413        1.06646        0.67180
