19
dsC7O2H10nsd_2190.xyz
O          2.27576       -0.35142       -0.51495
C          0.99202       -0.08119       -0.00292
C          0.39573       -1.16997        0.94936
C         -0.80302       -1.38742       -0.01655
C         -1.99496       -0.42430        0.20228
C         -1.22467        0.69326       -0.55722
O         -0.60492        1.63784        0.31841
C          0.78723        1.37623        0.42387
C         -0.15991       -0.34615       -1.00116
H          2.90166       -0.33135        0.21755
H          1.05813       -2.03873        0.98119
H          0.15578       -0.85980        1.97107
H         -1.02748       -2.41840       -0.28766
H         -2.87942       -0.74883       -0.35397
H         -2.28331       -0.18621        1.22966
H         -1.78352        1.23180       -1.32731
H          1.36875        2.02539       -0.24884
H          1.09734        1.57673        1.45707
H          0.07087       -0.50474       -2.05241
