19
dsC7O2H10nsd_3386.xyz
O          1.49065        1.79000        0.06246
C          0.60489        0.76106       -0.28031
C         -0.65796        0.66465        0.58645
C         -2.00182        1.01672       -0.10154
C         -2.16298       -0.47615       -0.50659
C         -1.05543       -0.85735        0.52121
C          0.16915       -1.67204        0.07220
C          1.25674       -0.62037       -0.13629
O          2.45276       -0.77375       -0.11231
H          2.37409        1.39098        0.02947
H          0.30600        0.84189       -1.34442
H         -0.45695        1.10415        1.56569
H         -2.75793        1.32757        0.62394
H         -1.96806        1.75800       -0.90432
H         -3.14636       -0.92929       -0.36255
H         -1.84988       -0.66717       -1.53813
H         -1.48009       -1.23276        1.45356
H          0.51538       -2.40318        0.80789
H          0.00095       -2.21937       -0.86322
