19
dsC7O2H10nsd_4607.xyz
C          1.19513        1.81750       -0.01654
C          1.00551        0.29486       -0.00064
C          1.91742       -0.44057       -1.03095
O          2.84248       -0.82575        0.00118
C          1.92737       -0.42109        1.03423
C         -0.39869       -0.07396        0.00694
C         -1.56403       -0.38409       -0.00163
C         -2.98842       -0.71640        0.02258
O         -3.83866        0.41647       -0.09134
H          0.74117        2.27451        0.86781
H          2.26186        2.06215       -0.02503
H          0.72955        2.25681       -0.90356
H          1.44235       -1.30703       -1.50680
H          2.38444        0.19087       -1.79538
H          1.45707       -1.27857        1.53105
H          2.40205        0.22425        1.78236
H         -3.23895       -1.36150       -0.82703
H         -3.21097       -1.29472        0.93390
H         -3.56488        1.04995        0.58008
