19
dsC7O2H10nsd_3747.xyz
O          2.29086       -0.83619       -0.83015
C          1.76541        0.33370       -0.27560
C          1.50379        0.40322        1.21241
C          0.35576        0.27273        0.23573
C         -0.62524        1.42643        0.01297
O         -1.70984        0.89905       -0.74855
C         -1.73934       -0.49486       -0.56902
C         -1.76934       -1.05154        0.83104
C         -0.46085       -0.97447        0.05533
H          3.20798       -0.91522       -0.54799
H          2.07109        1.25414       -0.77613
H          1.75666       -0.47598        1.79612
H          1.65249        1.35024        1.72369
H         -0.98941        1.81154        0.97748
H         -0.19293        2.26628       -0.54179
H         -2.24561       -0.99701       -1.38452
H         -1.92897       -0.37546        1.66459
H         -2.20509       -2.03621        0.96357
H          0.04440       -1.87645       -0.26256
