19
dsC7O2H10nsd_1660.xyz
C         -0.09358        1.93658       -0.22164
C          0.17137        0.45505       -0.05044
O         -0.14155       -0.09867        1.22423
C         -0.93699       -0.53185        0.10970
C         -2.37406       -0.13238        0.13140
O         -3.22209       -0.69335       -0.51611
C          1.46102       -0.02461       -0.65840
C          2.73645        0.06699        0.14796
C          2.13387       -1.27767       -0.17026
H         -0.99400        2.25533        0.30535
H          0.75446        2.50734        0.16942
H         -0.20296        2.18479       -1.28226
H         -0.75638       -1.54935       -0.23304
H         -2.60939        0.72054        0.80358
H          1.54464        0.19833       -1.71850
H          3.64459        0.36972       -0.36068
H          2.65376        0.41207        1.17288
H          2.62473       -1.90949       -0.90150
H          1.66120       -1.80579        0.64981
