19
dsC7O2H10nsd_4133.xyz
C          1.36132        1.77103        0.43325
C          0.63144        0.81283       -0.49184
O         -0.72539        1.23569       -0.70745
C         -1.50212        0.03740       -0.46590
O         -0.66299       -1.00123       -0.90608
C          0.43073       -0.67594       -0.01066
C          1.59697       -1.61608       -0.17057
C         -0.29269       -0.59887        1.33072
C         -1.52084       -0.16346        1.04764
H          0.86776        1.83290        1.40603
H          2.39996        1.45384        0.57863
H          1.37529        2.77318       -0.00461
H          1.13624        0.76594       -1.46622
H         -2.43549        0.08740       -1.02286
H          1.30139       -2.63915        0.07700
H          1.96483       -1.60070       -1.20056
H          2.41683       -1.32520        0.49340
H          0.16990       -0.75441        2.29578
H         -2.31865        0.12910        1.71584
