19
dsC7O2H10nsd_5353.xyz
O          3.03782       -0.78836       -0.22944
C          2.37951        0.33980        0.34481
C          0.90693        0.33618        0.07870
C          0.19380        1.30691       -0.50763
C         -1.25717        0.97967       -0.56753
C         -1.95222        0.80685        0.78264
C         -1.38371       -0.38864        0.06663
O         -2.25627       -1.32068       -0.49781
C          0.02647       -0.84849        0.44183
H          2.85226       -0.77242       -1.17447
H          2.58181        0.26336        1.42045
H          2.82146        1.28615       -0.00314
H          0.60552        2.24340       -0.86997
H         -1.86403        1.26605       -1.41867
H         -1.46023        1.19359        1.66980
H         -3.03445        0.88622        0.77399
H         -2.65510       -1.82710        0.21816
H          0.11967       -1.12075        1.50133
H          0.29897       -1.73987       -0.13615
