19
dsC7O2H10nsd_0823.xyz
O          2.99315       -0.89460       -0.62196
C          2.11548       -0.45637        0.08405
C          1.16594        0.59767       -0.32834
C          0.62751        1.55477        0.74802
C         -0.28835        0.55357        0.17260
C         -1.44566        0.84762       -0.79004
C         -2.44540       -0.29677       -0.49416
C         -1.57990       -1.30867        0.26882
O         -0.66583       -0.50512        1.01279
H          1.96213       -0.83532        1.11788
H          1.33728        0.99800       -1.32239
H          0.97215        1.37997        1.76251
H          0.51598        2.59761        0.47323
H         -1.88545        1.83061       -0.60249
H         -1.10520        0.82993       -1.82832
H         -3.25497        0.05854        0.14889
H         -2.89097       -0.71811       -1.39791
H         -2.13206       -1.92623        0.98020
H         -1.03519       -1.96821       -0.42393
