19
dsC7O2H10nsd_3206.xyz
C         -0.69713        1.89602       -0.34362
C         -0.35623        0.45904       -0.09208
C         -1.32838       -0.56678        0.50507
O         -2.68580       -0.24948        0.42063
C         -0.69159       -0.82852       -0.82252
O          0.62238       -1.36507       -0.64487
C          1.02624       -0.14426        0.00543
C          2.05379       -0.12853        1.08681
C          2.35164        0.47528       -0.28221
H         -0.43225        2.52769        0.51394
H         -0.16886        2.28582       -1.21979
H         -1.77050        2.00544       -0.52094
H         -1.02764       -1.17361        1.36138
H         -2.88820        0.39750        1.10521
H         -1.23037       -1.04611       -1.73724
H          1.91423        0.53895        1.93120
H          2.53013       -1.07272        1.32714
H          2.41288        1.55515       -0.37080
H          3.01786       -0.07524       -0.93753
