19
dsC7O2H10nsd_5758.xyz
C          3.10169       -0.12784        0.35271
O          2.00084       -0.41288       -0.48029
C          0.76181       -0.22773        0.16051
C          0.28014        1.26035        0.28594
C         -0.91008        0.95113       -0.66639
C         -2.20410        0.38817       -0.02501
O         -1.83328       -0.39407        1.11658
C         -1.73044       -0.99937       -0.18111
C         -0.40475       -0.52089       -0.81954
H          3.10575       -0.76656        1.25008
H          4.00775       -0.32357       -0.22608
H          3.11312        0.92257        0.68075
H          0.72299       -0.79076        1.10267
H          0.01697        1.59879        1.28954
H          1.00066        1.94997       -0.16101
H         -1.06809        1.58901       -1.53551
H         -3.20357        0.80886       -0.02225
H         -2.26525       -1.93155       -0.32526
H         -0.13637       -0.94409       -1.78598
