19
dsC7O2H10nsd_5696.xyz
C         -3.52244       -0.26364       -0.04675
C         -2.09882       -0.71010       -0.40150
C         -1.12418        0.44120       -0.39455
O         -0.74115        0.95439        0.89916
C          0.24960        0.33596        0.09959
C          1.04577       -0.90427        0.54586
C          2.29368       -0.22530       -0.05727
O          3.41922       -0.58185       -0.24218
C          1.51701        1.06891       -0.37499
H         -4.21271       -1.11196       -0.04868
H         -3.54368        0.19299        0.94700
H         -3.89668        0.47467       -0.76413
H         -1.75737       -1.47097        0.30875
H         -2.08596       -1.17179       -1.39760
H         -1.33138        1.22898       -1.12344
H          1.10500       -1.01562        1.63382
H          0.77770       -1.86940        0.10680
H          1.80152        1.90362        0.27499
H          1.55519        1.40260       -1.41570
