19
dsC7O2H10nsd_0152.xyz
C          2.29413        0.00001        0.36516
C          0.86155       -0.00001        0.96560
C          0.52620        1.07944       -0.11275
O         -0.79464        1.32159       -0.52510
C         -1.81384        0.78136        0.28568
C         -1.81379       -0.78138        0.28572
O         -0.79463       -1.32157       -0.52513
C          0.52621       -1.07944       -0.11279
C          1.35676        0.00002       -0.87098
H          2.88506        0.90294        0.53073
H          2.88508       -0.90292        0.53070
H          0.59749       -0.00003        2.02365
H          1.02914        2.04471        0.02013
H         -1.73587        1.15908        1.31604
H         -2.74991        1.16172       -0.13290
H         -1.73568       -1.15906        1.31609
H         -2.74988       -1.16183       -0.13273
H          1.02916       -2.04470        0.02005
H          1.63620        0.00004       -1.92385
