19
dsC7O2H10nsd_0762.xyz
O         -0.83849        2.05241       -0.13168
C         -0.12134        1.07794       -0.05789
C          1.37380        1.20285        0.22091
C          2.19351       -0.03411       -0.17227
C          1.43978       -1.30112        0.22034
O          0.19339       -1.35442       -0.46168
C         -0.68044       -0.31578       -0.11772
C         -1.78552       -0.62725        0.89717
C         -2.09768       -0.50070       -0.56649
H          1.73402        2.12271       -0.24715
H          1.44897        1.36084        1.30675
H          2.35526       -0.05368       -1.25580
H          3.17940       -0.00948        0.30487
H          1.98350       -2.20083       -0.07932
H          1.28363       -1.34199        1.31097
H         -1.75280       -1.62313        1.32435
H         -2.09851        0.16917        1.56243
H         -2.29413       -1.41033       -1.12155
H         -2.61120        0.39173       -0.90303
