19
dsC7O2H10nsd_4179.xyz
C         -2.18893       -1.12908       -0.08945
C         -1.43918        0.19062       -0.16349
O         -0.51712        0.16689       -1.28391
C          0.73614        0.71246       -0.82027
C          0.32513        1.67016        0.30058
C         -0.53124        0.59312        1.01653
C          0.51701       -0.51377        1.26207
C          1.36841       -0.44400       -0.02455
O          2.29054       -1.14828       -0.33264
H         -2.74370       -1.28933       -1.01823
H         -1.51357       -1.97761        0.04371
H         -2.90726       -1.11504        0.73706
H         -2.16901        0.99593       -0.33739
H          1.31172        1.07850       -1.66824
H          1.16908        2.02709        0.89805
H         -0.25392        2.52260       -0.06228
H         -1.07654        0.91955        1.90257
H          1.15341       -0.27131        2.12062
H          0.11841       -1.51627        1.42809
