19
dsC7O2H10nsd_1322.xyz
C         -2.91489        0.49643       -0.37761
C         -1.72799       -0.31705        0.12334
C         -1.23766        0.15313        1.49425
O         -0.72373       -0.20811       -0.89244
C          0.36208       -1.08715       -0.77407
C          1.57651       -0.52537       -0.02528
O          2.34917       -1.24896        0.56382
C          1.78331        0.90978       -0.11550
C          1.99588        2.09172       -0.19746
H         -3.75687        0.41395        0.31571
H         -2.64075        1.55226       -0.46634
H         -3.23386        0.14096       -1.36066
H         -2.02279       -1.37716        0.19792
H         -0.40662       -0.45651        1.86186
H         -0.90746        1.19493        1.44757
H         -2.04732        0.07610        2.22702
H          0.09441       -2.04084       -0.29929
H          0.70985       -1.31161       -1.79284
H          2.18453        3.13553       -0.26791
