19
dsC7O2H10nsd_4935.xyz
C          2.41104       -0.81820        0.39768
O          1.31376       -0.98225       -0.48271
C          0.20380       -0.13212       -0.22223
C         -0.48171       -0.31550        1.15361
C         -2.00399       -0.24945        0.86928
C         -2.09136       -0.50762       -0.61352
C         -0.90064       -0.45922       -1.20716
C          0.62391        1.32033       -0.49241
O          0.32816        2.26774        0.18871
H          2.15593       -1.09113        1.43064
H          3.19988       -1.48519        0.04302
H          2.79730        0.21185        0.40078
H         -0.21446       -1.30790        1.52746
H         -0.15926        0.43375        1.87804
H         -2.57886       -0.97166        1.45947
H         -2.40794        0.74221        1.10979
H         -3.03128       -0.68746       -1.12418
H         -0.69115       -0.58693       -2.26213
H          1.22826        1.42915       -1.42229
