19
dsC7O2H10nsd_3248.xyz
C         -2.41621       -0.15728       -0.21322
C         -0.91628       -0.17271       -0.04231
C         -0.30576       -0.87974        1.19829
C          0.90146       -1.31114        0.34198
O          1.83138       -0.21098        0.13407
C          1.03002        0.29752       -0.96208
C         -0.11996        1.14102       -0.37285
O          0.21691        2.02956        0.65276
C          0.11973       -0.95578       -0.95551
H         -2.88271        0.48189        0.54595
H         -2.70290        0.23279       -1.19651
H         -2.84455       -1.16090       -0.11209
H         -0.10639       -0.27723        2.08959
H         -0.90752       -1.75109        1.47991
H          1.42568       -2.24301        0.56019
H          1.64491        0.68190       -1.77782
H         -0.64640        1.69933       -1.15625
H          0.97784        1.62973        1.09755
H         -0.10222       -1.61343       -1.79096
