19
dsC7O2H10nsd_5715.xyz
C          2.18064       -1.44157        0.53297
C          1.40021       -0.39096       -0.28308
C          1.99673        0.93915       -0.17293
C          2.47170        2.03721       -0.05416
C         -0.05617       -0.34373        0.16193
O         -0.86965       -1.44709       -0.23234
C         -1.16326       -0.15683       -0.78241
C         -2.48722        0.47373       -0.39603
O         -2.67367        0.64414        0.99504
H          3.21485       -1.51035        0.18720
H          2.19314       -1.17503        1.59399
H          1.70287       -2.41857        0.42292
H          1.40974       -0.69733       -1.33716
H          2.90162        3.00399        0.03606
H         -0.20799       -0.03450        1.19608
H         -0.91875       -0.06256       -1.84323
H         -2.59004        1.42379       -0.94372
H         -3.29762       -0.18277       -0.73288
H         -2.11696        1.37487        1.28143
