19
dsC7O2H10nsd_4249.xyz
O          2.61622       -0.96961        0.04646
C          1.47745       -0.26290       -0.39121
C          1.37969        1.24855       -0.01879
C         -0.00959        0.98277        0.61035
O         -1.09467        1.30721       -0.26213
C         -1.75737        0.12634       -0.64496
C         -2.32817       -0.76011        0.43210
C         -0.99146       -1.09154       -0.21303
C          0.23165       -0.55310        0.48951
H          3.36240       -0.70990       -0.50350
H          1.27757       -0.44830       -1.45595
H          2.12924        1.50770        0.73430
H          1.39689        1.97865       -0.83034
H         -0.19532        1.41013        1.59947
H         -2.24935        0.22686       -1.60529
H         -2.33599       -0.38974        1.45233
H         -3.17523       -1.38674        0.17343
H         -0.90018       -1.97070       -0.84135
H          0.50438       -1.05885        1.41843
