19
dsC7O2H10nsd_3665.xyz
C          1.19545        1.99984       -0.21344
C          1.58196        0.55213        0.03949
C          1.04143       -0.64621       -0.80257
O          1.42565       -1.54383        0.31740
C          0.74239       -0.39055        0.95066
C         -0.33615       -0.49101       -0.14652
C         -1.59632       -1.30348       -0.19433
C         -1.61839        0.19293       -0.45923
O         -2.22228        1.11806        0.40265
H          1.62087        2.35525       -1.15830
H          0.11425        2.14910       -0.24238
H          1.59789        2.63743        0.58126
H          2.65088        0.42940        0.23316
H          1.29809       -0.96248       -1.81452
H          0.63778       -0.40452        2.03728
H         -1.77452       -1.98264       -1.02255
H         -1.99461       -1.65164        0.75549
H         -1.78786        0.50660       -1.48511
H         -2.05192        0.84772        1.31080
