19
dsC7O2H10nsd_2008.xyz
C         -0.49048        2.09862       -0.39849
C         -0.49396        0.63402       -0.06534
O         -1.41865        0.22625        0.96179
C         -1.56179       -0.32220       -0.38222
C         -0.93856       -1.67416       -0.51848
C          0.36700       -1.59691       -0.25988
C          0.82514       -0.17655        0.06764
C          1.95023        0.29838       -0.84457
O          1.31664       -0.09282        1.40178
H          0.10287        2.65260        0.33704
H         -0.06190        2.28347       -1.38790
H         -1.51034        2.49037       -0.37963
H         -2.48392       -0.04779       -0.88569
H         -1.50051       -2.57222       -0.74445
H          1.06159       -2.42803       -0.20556
H          2.25570        1.31408       -0.57887
H          2.81824       -0.35663       -0.72769
H          1.64179        0.27969       -1.89367
H          0.54707       -0.25023        1.96589
