19
dsC7O2H10nsd_3599.xyz
C          2.29850       -0.27859       -0.80602
C          1.55833        0.31905        0.41204
C          0.65290       -0.69400        1.13891
C         -0.70029       -0.91756        0.47288
O         -0.52078       -1.71246       -0.70092
C         -1.39187        0.38752        0.04500
O         -2.58444        0.37943       -0.20332
C         -0.54941        1.57600       -0.14999
C          0.78233        1.53938       -0.00006
H          2.94592       -1.10097       -0.48575
H          1.58393       -0.66801       -1.53294
H          2.92607        0.47502       -1.29296
H          2.32827        0.64839        1.12302
H          1.16116       -1.65838        1.24260
H          0.45787       -0.32259        2.15192
H         -1.37905       -1.42757        1.17156
H         -1.38464       -1.77847       -1.12572
H         -1.06667        2.47428       -0.47323
H          1.36593        2.43174       -0.22120
