19
dsC7O2H10nsd_4809.xyz
C         -0.84086        2.07935       -0.08493
O         -0.04814        1.12062        0.59475
C          0.02668       -0.16193        0.00042
C          1.38562       -0.74654        0.41711
C          2.55349        0.05350       -0.12087
O          3.52436       -0.43502       -0.64091
C         -1.12090       -1.09389        0.46733
C         -2.42856       -0.79999       -0.10603
C         -3.50624       -0.58832       -0.59548
H         -1.90646        1.82950       -0.05779
H         -0.68045        3.03259        0.42480
H         -0.53040        2.18245       -1.13520
H         -0.01733       -0.07167       -1.09613
H          1.43671       -0.71667        1.51488
H          1.49748       -1.78466        0.09428
H          2.45353        1.15225        0.00428
H         -0.85235       -2.12765        0.21584
H         -1.16658       -1.03732        1.56186
H         -4.45929       -0.39673       -1.02288
