19
dsC7O2H10nsd_1765.xyz
C         -2.66811       -0.13667       -0.14756
C         -1.18617        0.01552        0.04075
C         -0.37726       -0.72272        1.13678
C          0.70944       -0.59098        0.03907
C          1.88847       -1.49353       -0.14945
O         -0.36234       -0.68051       -0.96677
C          0.91702        0.93797        0.01555
O          1.94096        1.56194       -0.00105
C         -0.54835        1.42177        0.00235
H         -3.20790        0.36684        0.66097
H         -2.98284        0.30900       -1.09657
H         -2.95083       -1.19299       -0.15098
H         -0.22429       -0.24027        2.10649
H         -0.69663       -1.76061        1.25153
H          2.62337       -1.31185        0.64055
H          1.59074       -2.54476       -0.12397
H          2.37255       -1.28686       -1.10851
H         -0.77563        2.06440        0.85808
H         -0.78773        1.95751       -0.91999
