19
dsC7O2H10nsd_5315.xyz
C          1.23777        2.04073       -0.16514
C          0.11762        1.05593       -0.07325
C          0.19343       -0.28787       -0.15987
C          1.39931       -1.16896       -0.35150
O          2.54158       -0.78007        0.40842
C         -1.15643       -0.88445       -0.02341
O         -1.42098       -2.06729       -0.03045
C         -2.16196        0.26231        0.13657
C         -1.30488        1.53823        0.13048
H          1.20540        2.74102        0.67904
H          2.20894        1.54659       -0.17796
H          1.12967        2.65143       -1.07137
H          1.09915       -2.20297       -0.13473
H          1.72863       -1.14478       -1.39653
H          2.30161       -0.84146        1.33878
H         -2.88269        0.22666       -0.68583
H         -2.73143        0.12388        1.05990
H         -1.58814        2.23839       -0.66550
H         -1.38516        2.10452        1.06713
