19
dsC7O2H10nsd_0835.xyz
O          3.14228        0.00000        0.13533
C          1.96549       -0.00000        0.38893
C          0.85533        0.00000       -0.64922
C          0.01506       -1.30857       -0.46967
C         -1.30686       -1.01032        0.23546
C         -2.15389        0.00002       -0.55914
C         -1.30685        1.01031        0.23549
C          0.01507        1.30858       -0.46966
O         -1.06805       -0.00002        1.26262
H          1.59163       -0.00005        1.43712
H          1.34776        0.00001       -1.62390
H         -0.17901       -1.77633       -1.44078
H          0.58876       -2.03715        0.11521
H         -1.78909       -1.90316        0.64107
H         -2.07403        0.00003       -1.64890
H         -3.20071        0.00003       -0.25216
H         -1.78906        1.90316        0.64112
H         -0.17901        1.77635       -1.44076
H          0.58876        2.03715        0.11523
