19
dsC7O2H10nsd_2064.xyz
C          2.45839        0.41599        0.26156
C          1.03520        0.04887       -0.07674
O          0.88067       -1.06525       -0.98803
C          0.44186       -1.21843        0.36844
C         -1.04456       -1.34660        0.62631
C         -1.89166       -0.45760       -0.29299
C         -1.34580        0.94833       -0.41626
O         -0.78064        1.55628        0.75168
C          0.09622        1.19413       -0.33387
H          2.48943        1.03531        1.16446
H          3.06070       -0.48019        0.42842
H          2.91468        0.98804       -0.55419
H          1.07350       -1.88245        0.96152
H         -1.35051       -2.39302        0.51429
H         -1.21845       -1.07522        1.67371
H         -1.92083       -0.88391       -1.30213
H         -2.92521       -0.42542        0.06964
H         -1.94206        1.63131       -1.02272
H          0.52072        2.04908       -0.86085
