19
dsC7O2H10nsd_5332.xyz
C         -3.19881       -0.04850        0.40636
C         -2.12549       -0.45120       -0.62129
C         -0.72543       -0.24983       -0.12446
C          0.21161       -1.17389        0.11383
C          1.53779       -0.58264        0.57234
O          2.61844       -0.90885       -0.28667
C          1.23779        0.92159        0.59260
O          0.98088        1.42190       -0.72792
C         -0.14134        1.11230        0.14441
H         -3.11554        1.00755        0.68345
H         -4.20194       -0.20502       -0.00125
H         -3.10539       -0.64189        1.32100
H         -2.26156       -1.50184       -0.89918
H         -2.27129        0.13811       -1.53700
H          0.10890       -2.23722       -0.07490
H          1.82910       -0.94214        1.56593
H          2.42960       -0.45406       -1.11834
H          1.76782        1.59697        1.25748
H         -0.75105        1.96823        0.41684
