19
dsC7O2H10nsd_4336.xyz
O          1.93145       -1.56205       -0.00070
C          1.00234       -0.52241       -0.26380
C          1.66926        0.82025        0.04001
C          0.69357        1.95275       -0.17136
C         -0.62270        1.81274       -0.00136
C         -1.22596        0.53755        0.49240
C         -2.08356       -0.37476       -0.42677
O         -1.25689       -1.51931       -0.11669
C         -0.28056       -0.68130        0.55253
H          1.50600       -2.39406       -0.23517
H          0.71608       -0.52421       -1.32719
H          2.05137        0.81288        1.07061
H          2.54607        0.93725       -0.60479
H          1.09823        2.91077       -0.48645
H         -1.29144        2.65257       -0.17575
H         -1.73810        0.70296        1.44626
H         -3.12666       -0.53378       -0.13322
H         -2.04215       -0.11323       -1.49229
H         -0.03013       -1.06916        1.54716
