19
dsC7O2H10nsd_0791.xyz
O         -0.13273        2.52519        0.01148
C          0.63331        1.60089        0.12449
C          0.27678        0.15150       -0.08731
C          0.83877       -0.75140        1.06478
C          2.07725       -1.08312        0.19486
C          1.32239       -0.53748       -1.04268
C         -1.17558        0.00230       -0.46507
C         -2.22096       -0.33920        0.50262
O         -1.71328       -1.32211       -0.40758
H          1.70008        1.77632        0.39854
H          1.00786       -0.27597        2.03426
H          0.18616       -1.61704        1.19387
H          2.94546       -0.47176        0.45485
H          2.39217       -2.12780        0.16167
H          1.87073        0.11031       -1.73147
H          0.83219       -1.32828       -1.61461
H         -1.47348        0.56492       -1.34954
H         -1.95905       -0.49614        1.54780
H         -3.24580       -0.02019        0.32324
