19
dsC7O2H10nsd_2613.xyz
C          2.56283       -0.93794       -0.22517
C          1.13663       -0.55351        0.01446
C          0.61293        0.68080        0.11322
C          1.28593        2.00969       -0.00986
C         -0.86545        0.62641        0.43996
O         -1.66781        1.52562       -0.29006
C         -1.20189       -0.83160        0.11560
O         -2.29044       -1.19129       -0.25623
C          0.08692       -1.63703        0.18500
H          2.65102       -1.57091       -1.11752
H          3.21333       -0.07127       -0.35959
H          2.95668       -1.52790        0.61271
H          0.74669        2.63153       -0.73240
H          1.26315        2.55076        0.94520
H          2.32717        1.92805       -0.32858
H         -1.01561        0.78822        1.52607
H         -2.45764        1.02517       -0.54140
H          0.16337       -2.15391        1.15338
H          0.11037       -2.41537       -0.58672
