19
dsC7O2H10nsd_3396.xyz
C         -2.67265        0.01744       -0.15191
C         -1.21489        0.36230       -0.44650
C         -0.35157        0.61880        0.82715
O          0.78280        1.41248        0.53693
C          1.47000        0.93673       -0.62267
C          1.20795       -0.55714       -0.75420
O          1.43849       -1.11859        0.57177
C          0.04500       -0.92678        0.82365
C         -0.32965       -0.88243       -0.67204
H         -3.21346        0.89560        0.21633
H         -3.18364       -0.33930       -1.05248
H         -2.75886       -0.76794        0.60731
H         -1.16125        1.15976       -1.19463
H         -0.82909        1.04664        1.71040
H          1.15093        1.47928       -1.52581
H          2.53601        1.12671       -0.46374
H          1.80472       -1.04445       -1.52906
H         -0.36630       -1.58130        1.59301
H         -0.67446       -1.73968       -1.25178
