19
dsC7O2H10nsd_2817.xyz
C         -2.46924       -0.29515       -0.72585
C         -1.09010       -0.37556       -0.14257
C         -0.59656       -1.27534        0.99571
C          0.67677       -0.39209        1.03485
C          1.37804       -0.68837       -0.32365
O          2.59515       -0.00616       -0.52588
C          0.17302       -0.02485       -0.98731
C         -0.15955        0.74004        0.26724
O         -0.31291        2.09473        0.41983
H         -3.22627       -0.20677        0.06255
H         -2.56943        0.57600       -1.38183
H         -2.71034       -1.18615       -1.31684
H         -1.21842       -1.16298        1.88999
H         -0.44720       -2.34224        0.79038
H          1.27578       -0.27602        1.93617
H          1.58593       -1.74095       -0.54368
H          2.41579        0.93882       -0.44615
H          0.06805        0.30126       -2.01514
H         -0.90610        2.25842        1.16243
