19
dsC7O2H10nsd_2409.xyz
C          0.27073        1.83501        1.10929
C         -0.09812        0.68994        0.17778
C         -1.07994        0.97857       -1.00621
C         -1.84883       -0.33117       -0.67488
C         -1.01835       -0.46974        0.63621
O         -0.24360       -1.65441        0.79435
C          0.91875       -1.55860       -0.00547
C          1.14356       -0.06990       -0.29564
O          2.12438        0.40819       -0.80288
H          0.76911        1.46943        2.01368
H          0.95603        2.52292        0.60417
H         -0.62047        2.39213        1.41467
H         -1.66809        1.88038       -0.81797
H         -0.63197        1.06193       -1.99904
H         -2.92928       -0.23999       -0.54881
H         -1.65241       -1.14925       -1.37231
H         -1.58488       -0.32602        1.55844
H          1.77198       -1.98741        0.52973
H          0.81696       -2.09895       -0.96069
