19
dsC7O2H10nsd_1078.xyz
C          1.47913       -1.48226        0.91994
C          1.31336       -0.32688       -0.05300
O          2.23106        0.04535       -0.74968
C          0.00004        0.41918        0.00000
C          0.06333        1.74770        0.74347
C         -0.06280        1.74774       -0.74350
C         -1.31341       -0.32659        0.05295
C         -1.47958       -1.48198       -0.91995
O         -2.23098        0.04581        0.74972
H          0.60883       -2.14257        0.95028
H          2.37680       -2.04935        0.67085
H          1.59106       -1.06618        1.92868
H         -0.81187        1.97929        1.33905
H          1.01978        2.02305        1.17335
H         -1.01928        2.02341       -1.17313
H          0.81232        1.97905       -1.33927
H         -2.37734       -2.04886       -0.67066
H         -1.59182       -1.06597       -1.92867
H         -0.60953       -2.14265       -0.95035
