19
dsC7O2H10nsd_5127.xyz
O         -2.67472        0.88104       -0.21873
C         -2.09949       -0.23744        0.43975
C         -0.62275       -0.31141        0.21593
O         -0.20799       -0.70318       -1.11002
C          0.30875       -1.43956        0.00700
C          1.48979       -0.63834        0.60571
C          2.33012        0.22015       -0.38549
C          1.35091        1.41971       -0.17685
C          0.51003        0.56417        0.81426
H         -2.46531        0.78980       -1.15508
H         -2.31395       -0.10591        1.50543
H         -2.55825       -1.18366        0.11440
H          0.14480       -2.51255       -0.00629
H          1.99158       -1.11886        1.44565
H          3.34361        0.41518       -0.02748
H          2.38246       -0.16928       -1.40348
H          1.81606        2.28681        0.29745
H          0.81659        1.74903       -1.06931
H          0.29994        0.96277        1.80692
