19
dsC7O2H10nsd_0604.xyz
C          0.41707        1.54144       -0.79787
C          1.57721        0.63774       -0.31150
C          1.10770       -0.62805        0.41911
O          0.47902       -1.58421       -0.39694
C         -0.75960       -1.18729       -0.98834
C         -1.50999       -0.12746       -0.20113
C         -0.89385        1.26572       -0.07671
C         -0.90742        0.32729        1.10021
O          0.28792       -0.27232        1.51993
H          0.69502        2.58935       -0.65028
H          0.26882        1.42010       -1.87781
H          2.22534        0.34717       -1.14322
H          2.19733        1.18532        0.40517
H          1.96358       -1.15175        0.85164
H         -0.58242       -0.85026       -2.02232
H         -1.36218       -2.09940       -1.04507
H         -2.59089       -0.18973       -0.27310
H         -1.59527        2.09373       -0.04669
H         -1.54165        0.53146        1.95515
