19
dsC7O2H10nsd_3393.xyz
C          1.97725       -1.43720       -0.11831
C          0.66342       -0.75769       -0.48364
C         -0.49816       -1.02850        0.53843
C         -1.85561       -0.87807       -0.14629
O         -1.84136        0.45625       -0.67598
C         -0.84537        1.16234        0.03342
C         -0.25783        0.37618        1.16130
C          0.60272        0.71262       -0.05389
O          1.66431        1.59928       -0.08947
H          2.80370       -1.03894       -0.71481
H          2.22491       -1.27302        0.93601
H          1.91991       -2.51673       -0.29308
H          0.40636       -0.95737       -1.53232
H         -0.38858       -1.90905        1.17132
H         -2.00053       -1.57502       -0.97836
H         -2.68708       -0.99629        0.56482
H         -1.03971        2.22421        0.13088
H         -0.20713        0.66484        2.20226
H          1.66602        2.03509       -0.94928
