19
dsC7O2H10nsd_1537.xyz
C          1.71178        1.57378        0.37321
C          1.39104        0.14855       -0.05186
O          2.45563       -0.40207       -0.81424
C          1.02511       -0.90790        1.04222
C         -0.28940       -1.19060        0.30386
C         -1.11863        0.08081        0.25050
C         -2.47529       -0.05556       -0.32581
O         -3.43565        0.59183        0.01114
C          0.02736       -0.13628       -0.72739
H          0.92310        2.00572        0.99454
H          2.64790        1.59154        0.93971
H          1.83219        2.22056       -0.50496
H          2.62677        0.19184       -1.55393
H          1.73195       -1.73724        0.99963
H          0.93542       -0.55019        2.07188
H         -0.74924       -2.16226        0.17101
H         -1.04507        0.81844        1.04481
H         -2.55394       -0.82944       -1.12720
H         -0.14075       -0.14389       -1.79907
