19
dsC7O2H10nsd_0074.xyz
C          3.94965        0.45396       -0.00004
C          2.75907       -0.50780       -0.00006
C          1.42648        0.22599       -0.00003
O          0.38859       -0.74620        0.00025
C         -0.88252       -0.28004        0.00008
C         -1.99025       -1.07649       -0.00012
O         -3.11467       -0.30136       -0.00006
C         -2.71307        0.98848        0.00000
C         -1.35559        1.07741        0.00002
H          3.94143        1.10119       -0.88398
H          3.94197        1.10049        0.88441
H          4.89528       -0.09510       -0.00056
H          2.79653       -1.16160       -0.87867
H          2.79649       -1.16160        0.87856
H          1.33889        0.87005        0.88798
H          1.33866        0.86974       -0.88825
H         -2.13291       -2.14232       -0.00019
H         -3.49769        1.72706        0.00005
H         -0.77272        1.98345        0.00000
