19
dsC7O2H10nsd_3334.xyz
O          1.69270        1.48071        0.04510
C          0.47458        0.93062       -0.38757
C          0.58123       -0.37306       -1.18289
C          1.38524       -1.24241       -0.14213
C          0.66781       -0.87489        1.22878
C         -0.37920       -0.00047        0.56985
O         -1.67617        0.48507        0.92476
C         -2.10867        0.16284       -0.44459
C         -0.84943       -0.73032       -0.68836
H          1.50060        2.26372        0.57015
H         -0.15483        1.68523       -0.86806
H          0.92742       -0.41468       -2.21619
H          1.30526       -2.30905       -0.36662
H          2.43860       -0.96179       -0.13280
H          0.24326       -1.74649        1.73117
H          1.34012       -0.34902        1.90978
H         -3.04686       -0.39741       -0.42600
H         -2.23420        1.06387       -1.05272
H         -1.08100       -1.79450       -0.62616
