19
dsC7O2H10nsd_5063.xyz
C         -2.88234       -0.72357        0.01274
C         -1.44979       -0.77228       -0.53909
C         -0.55339        0.26555        0.07423
C          0.13468        0.10456        1.39854
C          0.98649        0.30962        0.17160
O          1.04516        1.68847       -0.18578
C         -0.39459        1.71811       -0.38528
C          1.96540       -0.64664       -0.35646
O          1.94185       -1.83309       -0.11378
H         -2.89157       -0.88948        1.09454
H         -3.35228        0.24688       -0.17973
H         -3.50434       -1.49311       -0.45364
H         -1.01232       -1.76058       -0.35708
H         -1.46829       -0.63888       -1.62805
H          0.13084        0.90110        2.13753
H          0.14975       -0.90880        1.78644
H         -0.87859        2.49691        0.21499
H         -0.63144        1.86295       -1.44563
H          2.72338       -0.19221       -1.03049
