19
dsC7O2H10nsd_4436.xyz
O          1.51440        1.45965       -0.94920
C          1.17761        0.13195       -0.66666
C          2.06924       -0.72123        0.26466
C          0.77733       -1.35932        0.84037
C         -0.05503       -0.18488        0.26884
C         -0.63358        0.96494        1.14445
C         -1.97435        0.91063        0.34638
C         -1.43631       -0.34766       -0.35399
O         -1.91234       -1.17748       -1.07692
H          1.84134        1.86716       -0.14026
H          1.02328       -0.35742       -1.63294
H          2.81735       -1.36942       -0.19720
H          2.56680       -0.08977        1.00989
H          0.51356       -2.29596        0.34186
H          0.72848       -1.50696        1.92127
H         -0.74333        0.69145        2.19645
H         -0.10250        1.91708        1.07774
H         -2.89721        0.77507        0.91634
H         -2.11381        1.74488       -0.34849
