19
dsC7O2H10nsd_1949.xyz
C         -2.53445        0.30503       -0.70075
C         -1.20699       -0.04519       -0.09163
C         -1.03528       -0.59317        1.29416
C         -0.34641        0.70005        0.95085
C          0.92113        0.49188        0.09886
O          1.56477        1.69867       -0.15118
C          1.73476       -0.81422        0.27174
O          0.82279       -1.52582       -0.60407
C          0.08068       -0.31772       -0.91450
H         -3.21824        0.70592        0.05477
H         -2.43106        1.05996       -1.48853
H         -3.01184       -0.57697       -1.14500
H         -1.90395       -0.47851        1.93568
H         -0.48138       -1.51122        1.45746
H         -0.54586        1.62646        1.47619
H          2.24026        1.55236       -0.82271
H          2.74372       -0.75713       -0.16294
H          1.79744       -1.26071        1.27025
H          0.02980       -0.10297       -1.98561
