19
dsC7O2H10nsd_5521.xyz
C         -2.96165        0.88677       -0.15807
C         -2.11089       -0.38690       -0.12313
C         -0.65016       -0.13670       -0.48054
C          0.33222       -1.30286       -0.18915
C          1.69644       -0.79795       -0.69033
C          1.58891        0.60438       -0.04146
O          2.34584        1.53229       -0.08083
C          0.22736        0.46525        0.65897
O          0.37177       -0.88065        1.21747
H         -4.00463        0.66827        0.08900
H         -2.59972        1.62934        0.56095
H         -2.94409        1.35082       -1.15034
H         -2.15859       -0.84892        0.86816
H         -2.51930       -1.11957       -0.83154
H         -0.55747        0.33842       -1.46474
H          0.06482       -2.35024       -0.32976
H          2.52909       -1.37107       -0.27555
H          1.80820       -0.73623       -1.77642
H         -0.09253        1.23414        1.35944
