19
dsC7O2H10nsd_3588.xyz
C          3.01906       -0.55325        0.02588
C          1.65493       -0.11344       -0.51995
C          0.46810       -0.98280       -0.02682
C         -0.71298       -0.00969        0.28520
O         -1.39197       -0.34214        1.46926
C         -1.70759        0.00057       -0.86780
O         -2.88474       -0.21415       -0.70794
C         -0.01179        1.33722        0.35027
C          1.24159        1.27731       -0.09189
H          3.25311       -1.57698       -0.28393
H          3.82093        0.09740       -0.33895
H          3.02807       -0.52029        1.12050
H          1.70737       -0.14868       -1.61810
H          0.19841       -1.77541       -0.73140
H          0.71266       -1.46077        0.92613
H         -2.32177       -0.46034        1.21610
H         -1.28209        0.22118       -1.86781
H         -0.53293        2.21759        0.70796
H          1.92202        2.12115       -0.15041
