19
dsC7O2H10nsd_5399.xyz
C         -2.66166       -0.31558        0.10354
O         -1.40247       -0.89634        0.37706
C         -0.36568       -0.40045       -0.41679
C          1.02750       -1.06331       -0.19050
O          1.44873       -2.15853       -0.43228
C          1.64952        0.23272        0.20506
C          0.81956        0.85917        1.32473
C          0.28939        0.95729       -0.05964
C          0.07161        2.24581       -0.79997
H         -2.94052       -0.44211       -0.95362
H         -3.39613       -0.82882        0.72832
H         -2.68206        0.75755        0.34308
H         -0.62287       -0.45105       -1.48855
H          2.66230        0.55959        0.00328
H          0.33028        0.22421        2.05595
H          1.25747        1.76419        1.73455
H          0.10749        2.09371       -1.88423
H         -0.90360        2.68328       -0.55738
H          0.83602        2.98464       -0.53824
