19
dsC7O2H10nsd_3878.xyz
O          2.39330       -0.89957        0.16078
C          1.15750       -0.75005       -0.48941
C         -0.04860       -1.63643       -0.03087
C         -0.91641       -0.37270       -0.02433
C         -2.28274       -0.17508       -0.50832
O         -1.96589       -0.11571        0.89324
C          0.30789        0.50061       -0.18392
C          0.70417        1.59493        0.77110
C          0.43602        1.90688       -0.67993
H          2.24373       -0.77935        1.10531
H          1.37168       -0.86281       -1.55586
H         -0.34794       -2.45678       -0.68652
H          0.10229       -2.02469        0.98160
H         -2.56875        0.77339       -0.96152
H         -2.87962       -1.03376       -0.81438
H         -0.03315        1.89551        1.50737
H          1.73556        1.61533        1.10894
H         -0.47379        2.44547       -0.92687
H          1.28374        2.14102       -1.31614
