19
dsC7O2H10nsd_5536.xyz
O          2.93731       -0.59168       -0.39478
C          1.83533       -0.54047        0.50428
C          0.94714        0.66294        0.23467
C         -0.15759        0.68798       -0.87162
O         -0.75162        1.85498       -0.17405
C         -0.44882        0.86739        0.89447
C         -1.05315       -0.21544       -0.01183
C         -1.33751       -1.67633        0.09279
C         -2.45223       -0.67583       -0.19482
H          2.58579       -0.71141       -1.28261
H          1.26411       -1.47690        0.49073
H          2.27880       -0.44371        1.50168
H          1.53105        1.58685        0.23163
H         -0.06422        0.74819       -1.95736
H         -0.70046        1.14005        1.92028
H         -1.02079       -2.32973       -0.71440
H         -1.31318       -2.14317        1.07259
H         -2.87566       -0.66201       -1.19384
H         -3.16993       -0.47602        0.59414
