19
dsC7O2H10nsd_5685.xyz
C          2.28428       -0.47633        1.26261
C          1.84518       -0.70496       -0.18716
C          0.47937       -0.11180       -0.49728
O         -0.19940       -0.69141       -1.63020
C         -0.74113       -0.93723       -0.33277
C         -2.08678       -0.32074       -0.01324
O         -2.22691       -0.09611        1.37992
C          0.37513        1.32630       -0.37276
C          0.32375        2.52001       -0.23144
H          3.26799       -0.91931        1.44134
H          2.34848        0.59171        1.49032
H          1.57731       -0.92871        1.96598
H          2.57758       -0.26907       -0.87638
H          1.79377       -1.77496       -0.41256
H         -0.58985       -1.95156        0.04083
H         -2.20785        0.59718       -0.60216
H         -2.88826       -1.01068       -0.29638
H         -1.62234        0.61767        1.61172
H          0.27483        3.57634       -0.12823
