19
dsC7O2H10nsd_4467.xyz
O          1.92767       -1.45004        0.64010
C          1.38594       -0.62152       -0.39027
C          1.89815        0.85680       -0.36034
C          0.71961        1.75162        0.13803
C         -0.44450        0.80875        0.05397
C         -0.09896       -0.43725       -0.25978
C         -1.30724       -1.31835       -0.29441
O         -2.39425       -0.43975        0.03638
C         -1.92380        0.89531        0.25814
H          1.58917       -1.12036        1.48031
H          1.68830       -1.12543       -1.31406
H          2.78899        0.92758        0.26894
H          2.19146        1.16263       -1.36867
H          0.86877        2.12329        1.16056
H          0.59261        2.64124       -0.48955
H         -1.48600       -1.76879       -1.28306
H         -1.26156       -2.14198        0.43371
H         -2.41583        1.58528       -0.44578
H         -2.19837        1.22265        1.27377
