19
dsC7O2H10nsd_3014.xyz
O          1.31168       -1.63031       -0.72682
C          1.30772       -0.59707        0.21515
C          0.16154       -0.43711        1.26726
O          0.53284        0.99436        1.32047
C          0.49020        0.67445       -0.13821
C          0.77761        1.75805       -1.12580
C         -0.80771       -0.11451        0.13085
C         -1.75009       -0.89792       -0.70898
C         -2.23765        0.29141        0.11292
H          1.82818       -2.36108       -0.37408
H          2.29756       -0.36978        0.62738
H         -0.00907       -0.94955        2.21449
H          1.76000        2.20001       -0.93442
H          0.77495        1.34701       -2.14018
H          0.02275        2.54787       -1.06536
H         -1.69528       -0.78724       -1.78708
H         -2.02872       -1.89448       -0.38212
H         -2.51207        1.19792       -0.41785
H         -2.84417        0.09312        0.99085
