19
dsC7O2H10nsd_4267.xyz
O         -0.12166        1.98822       -0.95440
C          0.11863        1.19121        0.18275
C         -1.07769        0.87238        1.13220
C         -0.81902       -0.64889        0.96365
C         -1.68470       -1.34121       -0.11231
C         -0.69488       -0.86999       -1.21653
C          0.28206       -0.30227       -0.14640
C          1.65181       -0.88910       -0.07219
O          2.62882       -0.31563        0.34626
H         -0.09127        2.91269       -0.69036
H          0.99967        1.53662        0.73626
H         -0.97667        1.25634        2.14980
H         -2.04104        1.19314        0.72550
H         -0.57046       -1.20532        1.86734
H         -1.70583       -2.42881       -0.00384
H         -2.71607       -0.98517       -0.18913
H         -0.26549       -1.68054       -1.81182
H         -1.06628       -0.10185       -1.89569
H          1.71888       -1.95066       -0.40992
