19
dsC7O2H10nsd_4824.xyz
C         -1.70086       -1.60899       -0.40227
O         -0.71328       -0.69224       -0.85909
C         -0.64926        0.49299       -0.13149
C         -1.76957        1.48059       -0.36796
C          0.04383        0.42524        1.20865
O          0.48122       -0.78655        1.72317
C          0.77538        1.04904        0.01029
C          1.88494        0.32067       -0.51940
C          2.82801       -0.32748       -0.89501
H         -2.71905       -1.22934       -0.56348
H         -1.57319       -2.51714       -0.99584
H         -1.56355       -1.84444        0.65831
H         -1.82576        1.74771       -1.42818
H         -2.73632        1.06481       -0.06568
H         -1.61055        2.39587        0.20968
H         -0.28015        1.10042        1.99592
H          1.16697       -1.13038        1.13380
H          0.87084        2.13066       -0.00200
H          3.65249       -0.88027       -1.27211
