19
dsC7O2H10nsd_1817.xyz
C          2.38102       -0.97535       -0.04522
C          1.03569       -0.29324        0.03477
C          0.76899        0.76842        1.13053
C          0.07192        1.49998       -0.03232
C         -1.38219        1.06081       -0.18963
C         -1.49107       -0.46114       -0.02826
O         -2.54718       -1.01537        0.15342
C         -0.16762       -1.23598       -0.09964
O          0.86722        0.74449       -0.98637
H          2.47649       -1.52974       -0.98478
H          3.18631       -0.23743        0.00218
H          2.50347       -1.68269        0.78172
H          0.17425        0.48318        2.00223
H          1.68659        1.26820        1.44515
H          0.21238        2.57825       -0.13933
H         -2.05500        1.53737        0.53118
H         -1.73823        1.32454       -1.19277
H         -0.18441       -2.01542        0.66960
H         -0.12258       -1.74023       -1.07296
