19
dsC7O2H10nsd_5592.xyz
C          2.40516       -1.38540       -0.47038
C          2.05985       -0.00795        0.10442
C          0.72837        0.01627        0.82796
C         -0.17118        1.18989        0.89196
O         -0.13933        1.98637       -0.28105
C         -0.64206        0.88080       -1.08764
C         -0.62245       -0.06828        0.10339
C         -1.66815       -1.03626        0.43033
O         -2.58792       -1.31921       -0.30353
H          2.45098       -2.14562        0.31700
H          1.65441       -1.70952       -1.19855
H          3.37647       -1.36830       -0.97345
H          2.83649        0.30489        0.81344
H          2.05334        0.74765       -0.68673
H          0.69742       -0.56903        1.74786
H         -0.57899        1.63266        1.79455
H         -1.65731        1.08856       -1.43541
H          0.01057        0.65536       -1.93688
H         -1.56256       -1.50831        1.43466
