19
dsC7O2H10nsd_4907.xyz
C         -0.19326        2.27119       -0.76463
C          0.29048        1.48676        0.46134
C          0.65964        0.04024        0.15740
C          2.02982       -0.22600       -0.45705
C          1.80437       -0.59543        0.96621
C         -0.37597       -0.96266       -0.22301
O         -0.10937       -2.05476       -0.68940
C         -1.88050       -0.73584        0.02393
O         -2.38496        0.17820        0.61925
H         -1.12718        1.86242       -1.16083
H         -0.38084        3.31704       -0.50354
H          0.55183        2.25245       -1.56696
H          1.18680        1.97379        0.86397
H         -0.46808        1.52535        1.24584
H          2.08483       -1.03027       -1.18054
H          2.62837        0.65094       -0.67760
H          1.70387       -1.64779        1.20439
H          2.23152        0.02112        1.74926
H         -2.46399       -1.58213       -0.39777
