19
dsC7O2H10nsd_0602.xyz
C          0.50409       -0.62906        1.39170
O          1.14904        0.60235        1.05483
C          0.64595        1.18924       -0.12376
O          0.96649        0.40608       -1.26148
C          0.85744       -0.99621       -1.03285
C         -0.07037       -1.32540        0.14045
C         -1.53814       -0.92736       -0.11924
C         -1.79377        0.55527       -0.06406
C         -0.84505        1.48833       -0.04928
H          1.27918       -1.24743        1.85584
H         -0.28315       -0.45202        2.13779
H          1.20425        2.12123       -0.24274
H          0.49314       -1.44684       -1.96306
H          1.85573       -1.41093       -0.82685
H         -0.03669       -2.40990        0.29484
H         -1.86836       -1.33105       -1.08802
H         -2.17653       -1.41654        0.62949
H         -2.83765        0.85883       -0.01928
H         -1.11498        2.53832        0.01747
