19
dsC7O2H10nsd_3503.xyz
C         -2.20044       -0.73039       -0.24281
C         -0.75584       -0.44375        0.09208
O         -0.14429       -1.38258        0.99152
C          0.31930       -1.34501       -0.36335
C          1.74024       -0.87270       -0.56433
C          1.99472        0.50372       -0.01815
C          1.04615        1.31418        0.44584
C         -0.42720        1.01197        0.41985
O         -1.09517        1.90820       -0.47894
H         -2.34350       -1.80031       -0.41321
H         -2.84923       -0.42464        0.58545
H         -2.51479       -0.17482       -1.12901
H          0.03336       -2.21993       -0.94974
H          2.42596       -1.59252       -0.09550
H          1.98009       -0.90077       -1.63750
H          3.03193        0.83007       -0.00166
H          1.30610        2.29974        0.82303
H         -0.87077        1.23406        1.39960
H         -0.58506        1.91596       -1.29682
