19
dsC7O2H10nsd_3585.xyz
C          1.85623       -1.53017       -0.28207
C          0.94106       -0.38346        0.09112
O          0.66580       -0.49211        1.46775
C          1.34037        1.07003       -0.32325
C         -0.15189        1.35636       -0.62760
O         -0.86118        1.80008        0.52212
C         -0.37189       -0.17994       -0.77712
C         -1.61456       -0.77766       -0.34873
C         -2.63933       -1.28937        0.01680
H          2.77182       -1.48884        0.31621
H          1.36201       -2.48502       -0.07930
H          2.12812       -1.49117       -1.34070
H          0.00052        0.17692        1.67960
H          1.80725        1.67629        0.45726
H          1.95682        1.09583       -1.22653
H         -0.39330        1.97451       -1.50017
H         -0.53472        2.67720        0.75031
H         -0.15011       -0.45756       -1.81349
H         -3.54527       -1.73680        0.34289
