19
dsC7O2H10nsd_2824.xyz
C         -1.59144        1.68761       -0.30190
C         -0.65184        0.59278        0.10747
C         -1.09078       -0.81628        0.39102
O         -2.39627       -1.08742       -0.04252
C         -0.07569       -0.56502       -0.70778
C          1.34810       -0.20801       -0.18954
O          2.42685       -0.12934       -1.05163
C          1.49914       -0.26299        1.30539
C          0.77595        0.90615        0.64903
H         -1.91641        2.27048        0.56934
H         -1.11064        2.37972       -1.00259
H         -2.47961        1.26877       -0.77922
H         -0.82502       -1.32942        1.31334
H         -2.40956       -1.98436       -0.39224
H         -0.28512       -0.82130       -1.73941
H          2.84737       -0.99639       -1.08699
H          1.01901       -0.98905        1.95190
H          2.50089        0.00936        1.62641
H          1.13373        1.92082        0.77049
