19
dsC7O2H10nsd_5835.xyz
C          2.80641        0.64084        0.17584
O          1.40576        0.80761        0.19595
C          0.70555       -0.39684        0.22261
C          0.53976       -1.24086       -1.07223
C         -0.92131       -1.51900       -0.63380
C         -0.83920       -0.27684        0.32446
O         -1.30839       -0.44707        1.64786
C         -1.38065        0.93094       -0.28651
C         -1.89735        1.90342       -0.76908
H          3.14522        0.10979       -0.72615
H          3.25082        1.63869        0.18402
H          3.16118        0.08513        1.05793
H          1.03870       -1.03278        1.05784
H          0.58326       -0.59797       -1.95500
H          1.20001       -2.09803       -1.21101
H         -1.69787       -1.50317       -1.39874
H         -1.01189       -2.42580       -0.03145
H         -2.19939       -0.08593        1.69939
H         -2.32821        2.77577       -1.19505
