19
dsC7O2H10nsd_3324.xyz
C          2.25258        0.19619       -0.71639
C          0.75349        0.00103       -0.88581
C          0.04671       -1.31628       -0.38344
C          0.39921       -1.28641        1.11057
O          0.22447        0.12460        1.40425
C         -0.21815        0.67926        0.14406
C         -0.50249        2.14541        0.25086
C         -1.20641       -0.41170       -0.33414
O         -2.34893       -0.48088       -0.67217
H          2.54688        0.15166        0.33426
H          2.81476       -0.56328       -1.26913
H          2.55186        1.17573       -1.10281
H          0.43808        0.22200       -1.91072
H          0.08333       -2.26367       -0.91579
H         -0.28395       -1.88726        1.72178
H          1.42915       -1.58716        1.33126
H         -1.26030        2.32886        1.01769
H          0.40150        2.69821        0.52490
H         -0.87525        2.53013       -0.70227
