19
dsC7O2H10nsd_5205.xyz
C          2.59456        1.01439       -0.03058
C          2.06271       -0.42326       -0.10570
C          0.57536       -0.48667        0.00729
O         -0.04806       -0.03216        1.23021
C         -1.26203       -0.68909        0.75531
C         -0.44640       -1.53706       -0.27221
C         -0.44063       -0.25765       -1.12078
C         -1.69805        0.24979       -0.40454
O         -1.84592        1.60550       -0.11185
H          2.19712        1.62399       -0.84817
H          2.30104        1.48381        0.91268
H          3.68633        1.03007       -0.09233
H          2.35378       -0.89034       -1.05412
H          2.50651       -1.02832        0.69401
H         -1.92233       -1.01583        1.55543
H         -0.40175       -2.58542       -0.52857
H         -0.15210       -0.13895       -2.15753
H         -2.60947       -0.10164       -0.89427
H         -1.12042        1.81326        0.49327
