19
dsC7O2H10nsd_1014.xyz
C          3.75727       -0.09704       -0.41445
C          2.33298       -0.01239       -0.12688
C          1.15602        0.04863        0.12434
C         -0.27206        0.13253        0.39404
C         -0.63915        1.37153        1.20410
O         -0.77934       -1.07967        1.03740
C         -1.76141       -1.29490        0.00568
C         -1.20391       -0.15205       -0.84707
O         -2.17018        0.80444       -1.18945
H          4.32796        0.63251        0.17055
H          4.14690       -1.09264       -0.17526
H          3.96248        0.09210       -1.47401
H         -0.16394        1.31529        2.18685
H         -0.28980        2.27956        0.70309
H         -1.72183        1.43526        1.32871
H         -1.70234       -2.30276       -0.41879
H         -2.78431       -1.10200        0.35269
H         -0.62905       -0.48430       -1.71791
H         -1.76822        1.45109       -1.77805
