19
dsC7O2H10nsd_2158.xyz
C          2.53135       -0.25069       -0.51298
C          1.09532       -0.12351       -0.09737
C         -0.00944       -0.97758       -0.75488
C         -1.15866       -0.16243       -0.11901
O         -2.44173       -0.68751       -0.04791
C         -0.96969        1.21896       -0.77970
C          0.32482        1.26137        0.05012
C         -0.31810        0.39317        1.14359
O          0.84524       -0.41936        1.32257
H          2.87960       -1.28049       -0.38030
H          2.64793        0.01747       -1.56785
H          3.16731        0.40693        0.08648
H         -0.03258       -0.95057       -1.84757
H          0.05487       -2.01220       -0.40561
H         -2.38734       -1.57278        0.32813
H         -0.92184        1.25704       -1.87148
H         -1.69233        1.95242       -0.41067
H          0.91136        2.15643        0.24620
H         -0.82856        0.72504        2.04669
