19
dsC7O2H10nsd_4962.xyz
C          0.69743        2.07334       -0.20992
C          0.76790        0.58734       -0.05598
C          1.67719       -0.35174       -0.89927
C          0.74161       -1.46903       -0.44137
C          0.32954       -1.05386        0.98096
O          1.03178        0.13777        1.31515
C         -0.39970       -0.48276       -0.19082
C         -1.83048       -0.41158       -0.59915
O         -2.57454        0.51965        0.17762
H          1.63780        2.53010        0.11722
H          0.52963        2.34257       -1.25706
H         -0.12023        2.48314        0.38828
H          1.57577       -0.15722       -1.97026
H          2.73264       -0.38989       -0.61144
H          0.67109       -2.49013       -0.79502
H          0.03867       -1.73849        1.76786
H         -1.92656       -0.06727       -1.63542
H         -2.27065       -1.42210       -0.55678
H         -2.42711        0.29978        1.10377
