19
dsC7O2H10nsd_0266.xyz
C          1.23844        1.46218       -0.19460
C          1.33308        0.43694        0.92286
C          2.26499       -0.68561        0.48289
O          1.53277       -0.86498       -0.76380
C          0.58303        0.12901       -0.35487
C         -0.84996       -0.11821       -0.69300
C         -1.63055       -1.17460        0.12472
C         -2.53484        0.01020        0.51522
O         -1.69988        0.94567       -0.20707
H          0.55459        2.27853        0.01007
H          2.10989        1.70848       -0.79594
H          0.97970        0.62201        1.92812
H          3.31858       -0.43558        0.30981
H          2.19577       -1.58936        1.09861
H         -0.94198       -0.24329       -1.78209
H         -2.10319       -1.96904       -0.45307
H         -1.05936       -1.61041        0.94543
H         -3.55137       -0.02155        0.10466
H         -2.59087        0.25526        1.58197
