19
dsC7O2H10nsd_2838.xyz
C          1.99530        1.52181       -0.16363
C          0.81402        0.60044       -0.08800
C         -0.63472        1.09053       -0.12847
C         -0.11991        0.32083        1.07924
C         -0.55584       -0.97639        0.26865
C         -1.52424       -0.07966       -0.55145
O         -2.84286       -0.00630       -0.05755
C          0.78631       -0.87770       -0.50257
O          1.85209       -1.63120        0.03432
H          2.19009        1.83365       -1.19609
H          1.83674        2.42567        0.43366
H          2.89563        1.02173        0.20786
H         -0.86142        2.14858       -0.19711
H         -0.06290        0.58490        2.12570
H         -0.89275       -1.92778        0.67674
H         -1.62420       -0.30670       -1.61840
H         -2.79043        0.27355        0.86454
H          0.76668       -1.12169       -1.57090
H          1.90324       -1.43106        0.97718
