19
dsC7O2H10nsd_5017.xyz
C          2.66059       -0.91336        0.25647
O          1.40555       -0.99370       -0.39766
C          0.56842        0.06315       -0.13752
C          0.74341        1.57321       -0.50696
C         -0.67470        1.42976        0.11962
C         -0.03548        0.53541        1.22490
C         -0.86552        0.16182       -0.76322
C         -1.89370       -0.88339       -0.43615
O         -2.66394       -0.84877        0.49269
H          2.54493       -0.89232        1.34851
H          3.22236       -1.80564       -0.02589
H          3.22216       -0.02231       -0.05610
H          1.46886        2.14202        0.07981
H          0.79539        1.81593       -1.57139
H         -1.40521        2.21960        0.26839
H          0.65246        1.04545        1.90377
H         -0.69997       -0.14770        1.75013
H         -0.84428        0.32246       -1.84814
H         -1.90773       -1.73726       -1.15215
