19
dsC7O2H10nsd_4757.xyz
C         -1.84571        2.03265        0.12727
C         -1.72652        0.58094       -0.37058
C         -2.70153       -0.35113        0.38629
O         -2.65639       -1.68285       -0.07399
C         -0.36190        0.06737       -0.24432
C          0.73835       -0.40667       -0.10403
C          2.10589       -0.88771        0.03675
C          3.13653        0.20764       -0.25327
O          4.16404        0.33037        0.35440
H         -1.58648        2.10326        1.18798
H         -1.17598        2.69344       -0.42839
H         -2.87064        2.39419       -0.00211
H         -2.00955        0.54349       -1.43101
H         -2.49185       -0.28311        1.46595
H         -3.72577       -0.00122        0.22191
H         -1.74309       -1.98049        0.01518
H          2.31000       -1.29110        1.03388
H          2.30018       -1.69884       -0.68213
H          2.86128        0.88166       -1.09315
