19
dsC7O2H10nsd_5500.xyz
C          2.81443        0.13164       -0.71505
O          1.97465       -0.50070        0.23722
C          0.67166       -0.66334       -0.20536
C         -0.31672       -1.02352        0.82946
C         -1.65561       -1.34078        0.14975
C         -1.65803        0.12454       -0.36684
O         -2.49223        0.80147       -0.90222
C         -0.33096        0.43226        0.24994
C          0.11891        1.75125        0.80518
H          2.47795        1.15140       -0.94322
H          3.81436        0.17158       -0.27857
H          2.85497       -0.44265       -1.65169
H          0.59545       -1.08560       -1.21107
H         -0.01673       -1.32191        1.82528
H         -1.66292       -2.14469       -0.59329
H         -2.48158       -1.49216        0.85049
H          0.15298        2.51018        0.01607
H         -0.57010        2.11106        1.57606
H          1.11410        1.66432        1.24753
