19
dsC7O2H10nsd_1922.xyz
C         -3.18449        0.21094       -0.14671
C         -1.70507        0.09918        0.02063
C         -0.66568        1.22847        0.15342
C          0.40776        0.25868       -0.47028
C          1.61587       -0.08226        0.35404
C          2.90583        0.59317        0.16703
O          2.69544       -0.72637       -0.33555
C         -0.69655       -0.81430       -0.54648
O         -1.18805       -1.00126        0.78922
H         -3.43242        0.89226       -0.96700
H         -3.61973       -0.76909       -0.35901
H         -3.65030        0.60034        0.76577
H         -0.86509        2.09139       -0.48631
H         -0.48634        1.56732        1.17728
H          0.71963        0.59055       -1.46450
H          1.39435       -0.50790        1.33249
H          3.00043        1.37175       -0.58985
H          3.60214        0.67333        1.00088
H         -0.78775       -1.65206       -1.22895
