19
dsC7O2H10nsd_5219.xyz
O         -2.43813        0.28912        0.03487
C         -1.57053       -0.60930        0.74512
C         -0.20315       -0.61156        0.12197
C          0.26912       -1.21209       -1.22459
C          1.49001       -0.42451       -0.70997
C          1.20652       -0.79772        0.78789
C          1.28370        0.67275        1.25499
C          0.59541        0.71827       -0.12640
O          0.10840        1.79941       -0.83183
H         -2.58528       -0.08508       -0.84042
H         -1.52587       -0.22009        1.76777
H         -2.00693       -1.61748        0.79428
H          0.36236       -2.30194       -1.27412
H         -0.20435       -0.82341       -2.13215
H          2.47691       -0.30748       -1.15877
H          1.55977       -1.69524        1.29182
H          0.68251        0.95164        2.12678
H          2.28352        1.11254        1.32063
H         -0.83126        1.86335       -0.61424
