19
dsC7O2H10nsd_2518.xyz
C         -2.02712       -1.64670        0.18255
C         -1.07548       -0.52890       -0.12882
C          0.22530       -0.65583       -0.35040
C          1.37053       -1.58238       -0.02474
O          2.20125       -0.41372        0.24743
C          1.21590        0.46902       -0.35858
C          0.63067        1.63057        0.43527
O         -0.62396        1.90944       -0.18370
C         -1.60684        0.88967       -0.06368
H         -2.52022       -1.49137        1.15040
H         -2.82428       -1.71359       -0.56890
H         -1.51528       -2.61211        0.21062
H          1.25895       -2.23204        0.85147
H          1.77688       -2.17013       -0.85977
H          1.56049        0.81218       -1.34350
H          0.52144        1.34474        1.49195
H          1.20794        2.55635        0.37132
H         -2.33623        1.08952       -0.85875
H         -2.14581        0.99802        0.89565
