19
dsC7O2H10nsd_2394.xyz
O         -0.51807        1.83254       -0.76682
C         -0.48079        0.64180       -0.02524
C         -1.80831        0.30628        0.67750
C         -1.65576       -1.16978        0.21932
C         -0.51475       -0.75392       -0.76106
C          0.83905       -1.46437       -0.58177
C          1.55473       -0.63584        0.47734
O          1.93660        0.66859        0.00573
C          0.76929        0.55336        0.83825
H          0.37641        1.96905       -1.10593
H         -1.87232        0.50507        1.75093
H         -2.63139        0.81903        0.17475
H         -1.29768       -1.82790        1.01655
H         -2.53571       -1.63012       -0.23348
H         -0.85278       -0.68443       -1.79614
H          0.71280       -2.50046       -0.24833
H          1.43622       -1.48778       -1.49950
H          2.26645       -1.09152        1.16165
H          0.82888        1.05477        1.80221
