19
dsC7O2H10nsd_0204.xyz
C          1.62073        0.43678       -0.70302
C          1.17192       -0.94303       -0.15107
C         -0.10601       -1.49641       -0.80414
C         -1.22721       -0.70062       -0.09849
C         -1.41343        0.73261       -0.63933
O         -0.50084        1.66328       -0.06624
C          0.73678        1.14378        0.36514
C          0.57769       -0.22718        1.11141
O         -0.77441       -0.60931        1.25461
H          2.68350        0.63283       -0.53690
H          1.38812        0.65593       -1.74888
H          1.94541       -1.69898       -0.01349
H         -0.12374       -1.38076       -1.89180
H         -0.22186       -2.55849       -0.57103
H         -2.18462       -1.22724       -0.10378
H         -1.33546        0.73426       -1.73844
H         -2.40910        1.10323       -0.37629
H          1.21323        1.95572        0.91845
H          1.08370       -0.32388        2.07215
