19
dsC7O2H10nsd_5052.xyz
C          2.25192       -0.41585       -0.77510
O          1.65759       -0.36676        0.51585
C          0.27194       -0.34537        0.51215
C         -0.35885        0.60690        1.49328
C         -0.53347        0.85338        0.00362
O          0.08490        1.94486       -0.60535
C         -1.75915        0.26095       -0.61197
C         -1.76259       -1.07128       -0.52179
C         -0.51401       -1.60750        0.14591
H          1.96313        0.45282       -1.37592
H          3.33305       -0.40914       -0.61756
H          1.98630       -1.33407       -1.31729
H         -1.21365        0.30166        2.08883
H          0.36239        1.24867        1.99047
H         -0.16032        2.74190       -0.12512
H         -2.53502        0.87361       -1.05729
H         -2.56278       -1.72046       -0.85749
H         -0.74433       -2.20517        1.03641
H          0.05649       -2.26193       -0.52574
