19
dsC7O2H10nsd_4001.xyz
C          2.95719       -0.12234       -0.69092
C          1.52363       -0.48981       -0.32506
C          1.22527       -0.43897        1.21621
C          0.24422        0.71145        0.97386
C          0.52317        0.66012       -0.52474
C         -0.87332        0.35802        0.00073
O         -1.77449        1.39804       -0.20318
C         -1.51611       -0.97026       -0.06919
O         -2.70677       -1.07600       -0.28452
H          3.07431       -0.01743       -1.77485
H          3.24825        0.82767       -0.22912
H          3.65560       -0.89346       -0.34864
H          1.25508       -1.42972       -0.81914
H          0.83449       -1.34273        1.69276
H          2.10446       -0.11287        1.77807
H          0.07297        1.57238        1.60838
H          0.60810        1.47577       -1.23368
H         -2.62736        0.95464       -0.33992
H         -0.88026       -1.85983        0.08246
