19
dsC7O2H10nsd_5930.xyz
C          3.30610       -0.50697       -0.39696
O          1.96906       -0.51004        0.04562
C          1.26528        0.65656       -0.31219
C         -0.15627        0.56791        0.20027
O         -0.85709        1.73332       -0.10647
C         -0.46942       -0.15324        1.47351
C         -0.88862       -0.76871        0.13221
C         -2.25741       -0.74089       -0.27976
C         -3.39553       -0.63292       -0.66152
H          3.87397        0.33247        0.03298
H          3.75995       -1.44586       -0.07145
H          3.37120       -0.43993       -1.49399
H          1.74310        1.55294        0.11792
H          1.24712        0.78882       -1.40677
H         -1.68902        1.48173       -0.53029
H          0.33611       -0.65493        1.99556
H         -1.25633        0.26739        2.08797
H         -0.29734       -1.61329       -0.20455
H         -4.40932       -0.58607       -0.97393
