19
dsC7O2H10nsd_3603.xyz
C          2.68743       -0.93630       -0.35047
C          1.53184       -0.27522        0.36675
O          1.15073        0.93644       -0.27793
C         -0.27163        0.98138       -0.37721
C         -0.81246        2.31757        0.10128
C         -0.71220       -0.23885        0.47413
O          0.39992       -1.11811        0.34798
C         -1.94180       -0.87378        0.03277
C         -2.98062       -1.35387       -0.33150
H          3.54795       -0.26274       -0.36248
H          2.96917       -1.85912        0.16350
H          2.39905       -1.16917       -1.37825
H          1.79838       -0.03960        1.41377
H         -0.56274        0.80660       -1.42156
H         -0.41119        3.13105       -0.50853
H         -1.90428        2.33427        0.02091
H         -0.53211        2.49909        1.14353
H         -0.81890        0.07907        1.52583
H         -3.89388       -1.79170       -0.65165
