19
dsC7O2H10nsd_2663.xyz
C         -2.47084        0.17185        0.38679
C         -1.28157        0.26105       -0.56564
C         -0.28501       -0.96416       -0.61773
O         -0.57620       -2.08479        0.18360
C          0.84540       -0.03379       -0.14046
C          2.31297       -0.00659       -0.50161
C          1.91264       -0.34628        0.89437
C         -0.09444        1.13400       -0.09957
O          0.02832        2.29257        0.19232
H         -2.16082       -0.07533        1.40795
H         -2.99047        1.13287        0.43032
H         -3.17803       -0.59439        0.05737
H         -1.62200        0.55707       -1.56434
H         -0.14524       -1.35861       -1.62700
H         -0.61374       -1.79769        1.10232
H          2.67200       -0.80357       -1.14434
H          2.74304        0.97150       -0.69091
H          1.97657       -1.38260        1.21019
H          2.06688        0.39194        1.67406
