19
dsC7O2H10nsd_3502.xyz
O          2.10403       -1.11426       -0.82196
C          1.38061       -0.58413        0.29702
C          1.53154        0.91481        0.34740
C          0.56235        1.77366        0.03091
C         -0.83712        1.38657       -0.36075
C         -1.17991       -0.05531       -0.05444
O         -2.27093       -0.45154       -0.84437
C         -1.03758       -0.56763        1.35209
C         -0.06997       -1.02620        0.26829
H          1.78284       -0.65322       -1.60537
H          1.87969       -1.03638        1.16385
H          2.52453        1.28136        0.59276
H          0.77526        2.84032        0.03373
H         -1.56431        2.05275        0.12196
H         -0.97197        1.54305       -1.44063
H         -2.55810       -1.32474       -0.55971
H         -0.66840        0.10772        2.11794
H         -1.76834       -1.28822        1.70743
H         -0.19547       -2.04677       -0.08437
