19
dsC7O2H10nsd_5177.xyz
C         -2.89970       -0.16860       -0.44819
O         -1.97593       -0.28872        0.62160
C         -0.67003       -0.11011        0.23875
C          0.21939       -1.09252       -0.52738
C          1.39090       -0.20875       -0.03891
O          2.61757       -0.83184        0.08498
C          1.20635        1.14129       -0.78452
C         -0.06057        1.29738        0.05627
C          0.44064        0.34786        1.12955
H         -2.83711        0.82051       -0.92238
H         -2.73170       -0.93605       -1.21648
H         -3.89702       -0.30406       -0.02431
H          0.23976       -2.06670       -0.03185
H          0.10072       -1.21393       -1.60991
H          3.26821       -0.17297        0.35088
H          1.96899        1.87085       -0.48612
H          1.13378        1.10876       -1.87804
H         -0.66458        2.18196        0.20953
H          0.52396        0.43687        2.20265
