19
dsC7O2H10nsd_3800.xyz
C         -2.47788       -0.27367        1.45134
C         -1.84624        0.34519        0.22473
C         -2.15842       -0.18418       -1.15379
C         -0.78683       -0.39403       -0.55560
C          0.41372        0.35431       -1.12493
C          1.41553        0.65967       -0.03396
O          1.57721        1.74446        0.47623
C          2.27353       -0.50448        0.48491
O          2.21060       -1.62575        0.05291
H         -1.87355       -0.09289        2.34720
H         -3.47670        0.13766        1.63410
H         -2.58300       -1.35764        1.33440
H         -1.70278        1.42162        0.28559
H         -2.80997       -1.04848       -1.23366
H         -2.25661        0.52287       -1.97096
H         -0.55971       -1.40247       -0.22313
H          0.89341       -0.25547       -1.89864
H          0.10065        1.30605       -1.56243
H          2.96534       -0.19786        1.29818
