19
dsC7O2H10nsd_1220.xyz
C         -0.73864        1.85668       -0.39479
C          0.05883        0.61704        0.03333
O          0.17038        0.56164        1.45350
C         -0.66508       -0.68308       -0.36716
C         -2.02039       -0.84072        0.28798
O         -3.04103       -1.06368       -0.31432
C          1.47216        0.67041       -0.61510
C          2.34217       -0.43817       -0.24888
C          3.05972       -1.35624        0.04546
H         -1.72471        1.85942        0.07689
H         -0.21593        2.77329       -0.09701
H         -0.87840        1.88830       -1.47965
H          0.57020        1.38240        1.76055
H         -0.79128       -0.73943       -1.45155
H         -0.03768       -1.52330       -0.04272
H         -2.01095       -0.74677        1.39355
H          1.36219        0.71290       -1.70606
H          1.94331        1.61885       -0.32122
H          3.69578       -2.16478        0.30870
