19
dsC7O2H10nsd_2814.xyz
O          3.14721       -0.00001       -0.26992
C          1.90080       -0.00001        0.36628
C          0.77263        0.77317       -0.25232
C          0.77262       -0.77317       -0.25234
C         -0.44499       -0.79177        0.67007
C         -1.77344       -1.13431       -0.01445
O         -2.12988        0.00001       -0.79110
C         -1.77343        1.13431       -0.01443
C         -0.44499        0.79176        0.67008
H          3.00769        0.00015       -1.22297
H          2.05136       -0.00002        1.44421
H          0.95276        1.46352       -1.07050
H          0.95276       -1.46350       -1.07053
H         -0.32162       -1.31433        1.62343
H         -1.71513       -1.99528       -0.68687
H         -2.54248       -1.34094        0.74869
H         -1.71512        1.99530       -0.68685
H         -2.54247        1.34094        0.74871
H         -0.32162        1.31431        1.62346
