19
dsC7O2H10nsd_5801.xyz
C         -2.73207       -1.27028       -0.28334
O         -1.95565       -0.12854       -0.56436
C         -1.16763        0.32135        0.52551
C         -0.66480        1.73829        0.15276
C          0.75044        1.51261       -0.29668
C          1.18239        0.27887        0.00201
C          0.12100       -0.52931        0.71027
C          2.52170       -0.22556       -0.30179
O          2.91265       -1.33725       -0.01808
H         -3.41235       -1.09679        0.56560
H         -3.32662       -1.48182       -1.17534
H         -2.11965       -2.15509       -0.05574
H         -1.78259        0.33023        1.43687
H         -1.30456        2.17300       -0.62183
H         -0.69564        2.42025        1.01322
H          1.34794        2.27393       -0.78797
H          0.01541       -1.53404        0.29178
H          0.37436       -0.65904        1.76957
H          3.18150        0.49988       -0.82909
