19
dsC7O2H10nsd_1788.xyz
C         -2.65162        0.03163       -0.03039
C         -1.14467        0.02241        0.06550
C         -0.44367       -1.02265        0.96885
C          0.52398       -1.11183       -0.23056
O         -0.50715       -0.59310       -1.10891
C          1.59069       -0.03917       -0.04973
O          2.75841       -0.27775        0.13616
C          0.99806        1.36947       -0.11457
C         -0.50820        1.41022        0.25841
H         -3.09082        0.44849        0.88246
H         -2.97759        0.64609       -0.87595
H         -3.03616       -0.98177       -0.17220
H         -0.05069       -0.69869        1.93554
H         -1.03197       -1.93487        1.08427
H          0.93360       -2.07283       -0.54527
H          1.60832        2.04120        0.49294
H          1.11924        1.68836       -1.15631
H         -0.64516        1.72660        1.29859
H         -1.02631        2.14377       -0.36710
