19
dsC7O2H10nsd_2078.xyz
O          0.00163        1.98674       -0.38310
C         -0.45976        0.76656        0.11552
C         -1.83594        0.67803        0.72467
C         -1.54773        0.03389       -0.62101
C         -1.21097       -1.44743       -0.63385
C         -0.13540       -1.61905        0.46923
C          0.58828       -0.24513        0.58566
C          1.79336       -0.18658       -0.33417
O          2.92241        0.01031        0.03377
H          0.29635        2.52585        0.35975
H         -2.01077        0.05828        1.59873
H         -2.41432        1.59475        0.69436
H         -2.00031        0.48663       -1.49553
H         -2.07824       -2.09226       -0.45657
H         -0.80529       -1.71884       -1.61516
H         -0.60006       -1.85758        1.42964
H          0.55881       -2.43554        0.25043
H          0.94761       -0.05470        1.60248
H          1.56281       -0.36474       -1.40971
