19
dsC7O2H10nsd_4981.xyz
C          2.59170        0.48352       -0.17107
O          1.78954       -0.68548       -0.09107
C          0.44659       -0.43222        0.02402
C         -0.64365       -1.28919        0.64294
C         -1.52281       -1.12771       -0.59715
C         -0.56740        0.01189       -1.08609
C         -1.06165        1.36145       -0.56835
O         -1.15646        1.18588        0.85526
C         -0.30860        0.10781        1.18618
H          2.44996        1.12708        0.70760
H          3.63142        0.15218       -0.21344
H          2.36866        1.06742       -1.07478
H         -0.54930       -2.16845        1.26984
H         -1.47596       -2.00609       -1.24484
H         -2.56860       -0.84559       -0.43739
H         -0.25022       -0.00806       -2.12788
H         -0.35584        2.17282       -0.80818
H         -2.05375        1.63808       -0.93997
H          0.13387        0.17404        2.17268
