19
dsC7O2H10nsd_0268.xyz
C         -0.87763       -0.94926        1.02005
C         -1.55167       -0.87970       -0.31499
O         -2.65584        0.02929       -0.28588
C         -1.75042        1.12872       -0.00518
C         -0.54839        0.18634        0.07019
C          0.82297        0.46426       -0.45180
C          1.92594        0.94914        0.52565
C          2.69509       -0.29530        0.04673
O          1.55973       -0.75460       -0.72195
H         -1.45868       -0.77806        1.92241
H         -0.09132       -1.69379        1.09027
H         -1.54360       -1.65492       -1.07183
H         -1.70669        1.81670       -0.85862
H         -2.02886        1.68009        0.90089
H          0.75392        1.08258       -1.35976
H          2.37635        1.91760        0.30479
H          1.62384        0.91554        1.57376
H          3.55959       -0.08742       -0.59634
H          2.98893       -1.02096        0.81312
