19
dsC7O2H10nsd_3801.xyz
C          3.18942        1.45036        0.01025
C          2.28846        0.32419        0.44239
O          2.56644       -0.97324       -0.10761
C          1.34424       -0.32871       -0.47132
C          0.09034       -1.00556        0.02126
O         -0.98112       -0.09619       -0.12905
C         -2.22552       -0.66597        0.22869
C         -3.29283        0.30731        0.04093
C         -4.19255        1.08896       -0.10425
H          3.36889        1.41183       -1.06746
H          2.73703        2.41686        0.25631
H          4.15599        1.38989        0.52106
H          2.04308        0.29972        1.50587
H          1.29845        0.02222       -1.50309
H         -0.09350       -1.92329       -0.56340
H          0.21897       -1.30783        1.07320
H         -2.42814       -1.56267       -0.38209
H         -2.20879       -0.99984        1.28048
H         -4.98389        1.78499       -0.23530
