19
dsC7O2H10nsd_0370.xyz
C          2.06659        0.75497        0.08279
C          2.06659       -0.75499       -0.08277
C          0.78237       -0.00002        0.00005
C         -0.27829        0.10960       -1.08266
C         -1.09278        1.29365       -0.54228
O         -1.06388        1.07737        0.88760
C         -0.27837       -0.10960        1.08269
C         -1.09285       -1.29363        0.54224
O         -1.06386       -1.07736       -0.88764
H          2.36150        1.16632        1.04265
H          2.36612        1.35853       -0.76854
H          2.36141       -1.16639       -1.04263
H          2.36619       -1.35852        0.76856
H          0.03433        0.16966       -2.12495
H         -0.64437        2.26684       -0.78067
H         -2.12615        1.26874       -0.90350
H          0.03416       -0.16967        2.12499
H         -0.64450       -2.26683        0.78066
H         -2.12626       -1.26869        0.90339
