19
dsC7O2H10nsd_4900.xyz
O         -2.14842       -1.56387       -0.32068
C         -1.14637       -1.17155        0.59198
C         -0.36982        0.08674        0.15784
C          0.63641       -0.20798       -1.01312
C          1.77019       -0.36510        0.03830
O          2.98349        0.31175       -0.18538
C          0.87530        0.33175        1.08096
C         -1.26166        1.21625       -0.03369
C         -1.97980        2.16921       -0.18340
H         -1.73519       -1.70795       -1.17832
H         -1.66250       -0.96659        1.53524
H         -0.42722       -1.98629        0.77770
H          0.41495       -1.05905       -1.66613
H          0.80419        0.68073       -1.62396
H          1.94758       -1.41978        0.28932
H          3.49893       -0.18704       -0.82729
H          0.83410       -0.08941        2.08852
H          1.12192        1.39308        1.13868
H         -2.62280        3.00325       -0.31838
