19
dsC7O2H10nsd_4002.xyz
C          2.80668       -0.70950       -0.40733
C          1.58574        0.18320       -0.33799
O          1.24958        0.50849        1.05623
C          0.04890       -0.22858        0.93695
C          0.24222       -0.52644       -0.50942
C         -0.90054        0.40710       -0.10265
C         -0.90455        1.89808       -0.35700
C         -2.21747       -0.28093       -0.09218
O         -2.36973       -1.48144       -0.05081
H          3.01661       -0.98060       -1.44770
H          3.67881       -0.18633       -0.00474
H          2.65157       -1.62578        0.16906
H          1.73296        1.09899       -0.92177
H         -0.30708       -0.80988        1.77858
H          0.04874       -1.43539       -1.06247
H         -0.91524        2.13217       -1.42692
H         -1.79085        2.35801        0.09345
H         -0.02729        2.36833        0.09263
H         -3.09301        0.40655       -0.09559
