19
dsC7O2H10nsd_1362.xyz
C         -2.15203        1.74254        0.11044
C         -1.23963        0.56886       -0.30093
C          0.21513        0.84468        0.10993
C          1.19599       -0.23236       -0.37124
O          0.83894       -1.43465        0.30704
C          2.59173        0.13794       -0.11507
C          3.74077        0.42453        0.09074
C         -1.80669       -0.69282        0.33408
O         -2.49536       -1.49214       -0.24496
H         -3.17855        1.57492       -0.22652
H         -2.16766        1.86747        1.19923
H         -1.79369        2.67914       -0.32773
H         -1.30418        0.43233       -1.38679
H          0.53016        1.81066       -0.29708
H          0.29846        0.91526        1.20125
H          1.06618       -0.35854       -1.45842
H          1.36908       -2.15666       -0.04572
H          4.75555        0.67933        0.27418
H         -1.59570       -0.78976        1.42324
