19
dsC7O2H10nsd_4530.xyz
C          2.40347       -1.53279        0.00082
C          1.33578       -0.50250        0.33007
C         -0.06957       -0.92029       -0.11709
C         -1.01547        0.24847       -0.02351
C         -2.46717        0.00433        0.01114
O         -2.97717       -1.09283       -0.02288
C         -0.55439        1.50353        0.05734
C          0.91074        1.81463        0.02656
O          1.71411        0.71198       -0.32252
H          2.17187       -2.48992        0.47744
H          2.45922       -1.68757       -1.08108
H          3.38265       -1.19528        0.35019
H          1.31698       -0.32766        1.41987
H         -0.03695       -1.29711       -1.14759
H         -0.44614       -1.74476        0.49767
H         -3.08686        0.92769        0.07547
H         -1.24103        2.34133        0.16395
H          1.11649        2.59805       -0.71389
H          1.20802        2.22987        1.00914
