19
dsC7O2H10nsd_1591.xyz
C         -0.04680        1.18630        1.37454
C         -0.41296        0.73591       -0.03891
O         -0.30982        1.80169       -0.96684
C         -1.83468        0.14410       -0.11535
C         -1.62874       -1.37781        0.06678
O         -0.21658       -1.60570        0.15262
C          0.41339       -0.51044       -0.49400
C          1.83475       -0.46790       -0.18827
C          3.01322       -0.37686        0.02992
H         -0.12572        0.35365        2.07927
H          0.98330        1.55500        1.41328
H         -0.71972        1.98709        1.69353
H          0.56627        2.19163       -0.86904
H         -2.49509        0.57217        0.64165
H         -2.25142        0.37821       -1.09758
H         -2.07467       -1.76785        0.98577
H         -2.04731       -1.93967       -0.77948
H          0.29120       -0.57872       -1.58926
H          4.05533       -0.31925        0.22733
