19
dsC7O2H10nsd_0901.xyz
O          3.22764       -0.64349        0.12443
C          2.19656       -0.14240        0.48999
C          1.35571        0.81473       -0.33467
C         -0.11399        0.45398       -0.34014
C         -1.18565        1.51386       -0.42147
C         -1.05137        0.68390        0.82996
C         -1.93259       -0.54951        0.89846
O         -1.83383       -1.15676       -0.38764
C         -0.53239       -0.90168       -0.90049
H          1.78373       -0.35167        1.50464
H          1.47892        1.81162        0.11199
H          1.77289        0.85716       -1.34650
H         -0.86331        2.54832       -0.37100
H         -2.03942        1.33273       -1.06710
H         -0.71579        1.14436        1.75214
H         -1.57660       -1.22855        1.69054
H         -2.99252       -0.33902        1.07499
H          0.18354       -1.67833       -0.58051
H         -0.59961       -0.93191       -1.99338
