19
dsC7O2H10nsd_4572.xyz
O          0.18277        1.91421       -0.27645
C         -0.41674        0.80827        0.36575
C         -1.95373        0.89653        0.27071
C         -2.38445       -0.51491       -0.19155
O         -1.23901       -1.35538       -0.05040
C         -0.11043       -0.54591       -0.31360
C          1.13384       -1.27043        0.21158
C          2.33903       -0.46149        0.06527
C          3.31269        0.23481       -0.05890
H          1.13846        1.78583       -0.22890
H         -0.10401        0.75457        1.41994
H         -2.40124        1.16775        1.22873
H         -2.22102        1.66550       -0.45750
H         -3.18690       -0.95036        0.40880
H         -2.71132       -0.50047       -1.24175
H          0.00008       -0.35591       -1.39511
H          0.96996       -1.51500        1.26844
H          1.25116       -2.22263       -0.31800
H          4.19354        0.81887       -0.16553
