19
dsC7O2H10nsd_4766.xyz
C          0.34877       -2.16457        0.45892
C         -0.38775       -0.81685        0.44875
C         -1.76760       -1.01087       -0.20758
O         -2.47565        0.17274       -0.50490
C          0.43048        0.30110       -0.27699
C          1.91028        0.23385        0.12239
O          2.79067       -0.12088       -0.61283
C         -0.04031        1.64264        0.05614
C         -0.33000        2.75662        0.40732
H         -0.29971       -2.94698        0.86576
H          0.64142       -2.46062       -0.55395
H          1.25495       -2.13765        1.06959
H         -0.53704       -0.48794        1.48581
H         -1.63576       -1.52175       -1.16929
H         -2.35670       -1.68557        0.43567
H         -2.45581        0.75063        0.26513
H          0.38587        0.13051       -1.35870
H          2.10874        0.54761        1.17104
H         -0.60932        3.74536        0.67706
