19
dsC7O2H10nsd_3648.xyz
O          3.11120        0.92368       -0.38246
C          2.10466        0.29755        0.37044
C          1.59833       -1.11391       -0.03645
C          0.18357       -0.67453        0.38884
C          0.64083        0.80940        0.28944
O         -0.82923       -1.14485       -0.47197
C         -2.14972       -0.95015       -0.00504
C         -2.61349        0.44072       -0.03864
C         -3.00936        1.57525       -0.06777
H          2.81913        0.95400       -1.29972
H          2.46951        0.30317        1.40162
H          1.62436       -1.23298       -1.12514
H          2.04106       -1.99476        0.43252
H         -0.04433       -0.95871        1.42644
H          0.41824        1.19161       -0.71205
H          0.28964        1.52544        1.03389
H         -2.78757       -1.56075       -0.65340
H         -2.25730       -1.34198        1.01986
H         -3.35747        2.57839       -0.09355
