19
dsC7O2H10nsd_4592.xyz
C          3.46883        0.46159        0.91259
C          2.98221       -0.07247       -0.44694
C          1.54030       -0.29010       -0.49712
C          0.35019       -0.47853       -0.51772
C         -1.09841       -0.71662       -0.53421
O         -1.46641       -1.90040        0.12187
C         -1.82427        0.48792        0.12051
C         -1.69302        1.83842       -0.53345
O         -2.47443        0.28724        1.12081
H          2.99856        1.42084        1.14552
H          3.22182       -0.23851        1.71491
H          4.55340        0.60357        0.89914
H          3.27015        0.62643       -1.24278
H          3.49432       -1.01554       -0.67664
H         -1.43555       -0.76396       -1.58338
H         -1.95328       -1.60319        0.90942
H         -0.63792        2.09043       -0.66975
H         -2.14758        1.80768       -1.53058
H         -2.19229        2.59639        0.07072
