19
dsC7O2H10nsd_3742.xyz
O         -2.79358       -0.15303       -0.43009
C         -1.53956       -0.76730       -0.45715
C         -0.90298       -1.23420        0.82899
C         -0.41554        0.01842        0.13957
C         -0.52768        1.46857        0.61682
C          0.73538        1.80187       -0.23023
C          0.95023        0.28047       -0.53725
C          2.09858       -0.33263        0.21809
O          2.88035       -1.12956       -0.23513
H         -3.45250       -0.82481       -0.22618
H         -1.32484       -1.33930       -1.36104
H         -1.47368       -1.09575        1.74239
H         -0.28202       -2.12459        0.80429
H         -1.45114        1.97685        0.33320
H         -0.37605        1.59300        1.69303
H          0.52156        2.37681       -1.13247
H          1.55495        2.28919        0.30433
H          1.02447       -0.00389       -1.58947
H          2.17460        0.00205        1.28068
