19
dsC7O2H10nsd_0258.xyz
C          0.47131       -0.32962        1.33466
C          1.08634       -1.12386        0.15859
C          2.14163       -0.09741       -0.35997
C          1.30458        1.24628       -0.31634
C          0.01100        0.60416        0.15170
O         -1.24327        1.21059        0.15584
C         -2.16219        0.13072       -0.02773
O         -1.44174       -1.05388       -0.38854
C         -0.11860       -0.66036       -0.70357
H         -0.36213       -0.83898        1.81491
H          1.15285        0.08827        2.07941
H          1.40483       -2.16158        0.24269
H          3.01704       -0.06444        0.29313
H          2.48435       -0.32712       -1.37288
H          1.71253        1.97932        0.38345
H          1.20973        1.71611       -1.29852
H         -2.70482       -0.07926        0.90351
H         -2.86792        0.41806       -0.81855
H          0.02907       -0.60349       -1.78950
