19
dsC7O2H10nsd_3027.xyz
C          1.97038       -1.44740       -0.38407
C          0.65418       -0.70298       -0.56486
C         -0.48931       -0.99311        0.48386
C          0.20410        0.06627        1.40551
C          0.54833        0.72897        0.03349
O          1.62885        1.58585       -0.15196
C         -0.84937        1.16776       -0.45507
C         -1.60107       -0.14132       -0.10695
O         -2.76119       -0.40195       -0.27254
H          2.32089       -1.46290        0.65065
H          1.86840       -2.48487       -0.71787
H          2.74995       -0.97377       -0.98850
H          0.34235       -0.77680       -1.61329
H         -0.74245       -1.99665        0.81773
H         -0.42456        0.62103        2.10812
H          1.07780       -0.33153        1.91944
H          1.39595        2.45857        0.18234
H         -1.26354        2.02164        0.09269
H         -0.88943        1.38487       -1.52677
