19
dsC7O2H10nsd_3773.xyz
C         -3.29166        0.28705       -0.32880
C         -1.89333       -0.27304       -0.31443
O         -1.39136       -0.72823        0.94861
C         -0.76592        0.41210        0.33916
C          0.63668        0.25099       -0.10225
C          1.56737        1.41010       -0.41694
C          1.95756        0.41617        0.62917
O          2.51995       -0.75565        0.04251
C          1.26252       -1.03791       -0.63196
H         -4.02965       -0.51890       -0.25932
H         -3.44620        0.96547        0.51465
H         -3.47747        0.83469       -1.25897
H         -1.65243       -0.94310       -1.14271
H         -0.98194        1.35666        0.84255
H          2.10920        1.44539       -1.35842
H          1.22782        2.37199       -0.04285
H          2.20275        0.64144        1.66076
H          1.38568       -1.14173       -1.71650
H          0.79417       -1.93367       -0.21190
