19
dsC7O2H10nsd_4076.xyz
O          2.90160        0.00000       -0.47370
C          1.48947        0.00000       -0.40842
C          0.87279       -1.21193        0.32010
C         -0.55987       -0.79740        0.67083
C         -1.52926       -0.73607       -0.51958
O         -2.68054       -0.00000       -0.09638
C         -1.52927        0.73607       -0.51958
C         -0.55987        0.79740        0.67083
C          0.87279        1.21193        0.32010
H          3.23814       -0.00003        0.42940
H          1.16920        0.00000       -1.45608
H          0.92846       -2.13013       -0.27270
H          1.43934       -1.39111        1.24413
H         -0.96338       -1.30712        1.54798
H         -1.66269       -1.44667       -1.32858
H         -1.66270        1.44667       -1.32857
H         -0.96338        1.30711        1.54799
H          0.92846        2.13014       -0.27270
H          1.43934        1.39111        1.24413
