19
dsC7O2H10nsd_4662.xyz
C         -2.69223       -1.14304       -0.18833
O         -1.58342       -0.39484       -0.70528
C         -0.72180        0.06846        0.21963
O         -0.84831       -0.11465        1.40494
C          0.39037        0.88883       -0.41726
C          0.05172        2.38258       -0.26482
C          1.73934        0.55362        0.25758
C          2.19208       -0.80496       -0.01480
C          2.54588       -1.92698       -0.26052
H         -3.29170       -0.52750        0.48719
H         -3.27936       -1.44172       -1.05672
H         -2.33990       -2.02151        0.35760
H          0.43959        0.63399       -1.47875
H         -0.89682        2.62113       -0.75422
H         -0.03087        2.65233        0.79246
H          0.83275        2.99898       -0.71975
H          2.49423        1.27033       -0.08754
H          1.62753        0.69717        1.33837
H          2.86628       -2.91832       -0.46479
