19
dsC7O2H10nsd_3208.xyz
C          2.80047       -0.05481        0.44438
C          1.34916       -0.47947        0.52231
C          0.67108       -0.86913       -0.77016
O         -0.63248       -1.41184       -0.52177
C         -1.05678       -0.15087        0.03027
C         -2.36215        0.46663       -0.32735
C         -2.09819       -0.03499        1.08994
C          0.32415        0.44604       -0.11866
O          0.57709        1.74326       -0.51640
H          3.05922        0.63793        1.25352
H          3.46378       -0.92160        0.52754
H          3.01778        0.45005       -0.50147
H          1.05996       -1.02802        1.41734
H          1.17471       -1.13744       -1.69100
H         -2.37824        1.53636       -0.50715
H         -3.03371       -0.11681       -0.94742
H         -1.95774        0.69010        1.88566
H         -2.59824       -0.94870        1.39224
H          0.86926        2.24637        0.25166
