19
dsC7O2H10nsd_4136.xyz
C          0.43334        2.11290        0.27281
C         -0.10637        0.91498       -0.48765
O         -1.55807        0.83776       -0.39499
C         -1.76669       -0.49549        0.08150
C         -0.74853       -0.63878        1.23888
C          0.25240       -0.49112        0.03563
C         -0.79602       -1.34859       -0.76977
C          1.67731       -0.92045        0.12277
O          2.62458       -0.24907       -0.20771
H          1.51400        2.18425        0.12570
H         -0.03582        3.02707       -0.10228
H          0.22705        2.04568        1.34463
H          0.17215        1.00555       -1.54501
H         -2.83302       -0.69342        0.17647
H         -0.74316        0.13238        2.01014
H         -0.72383       -1.63652        1.68026
H         -0.82330       -1.21687       -1.85361
H         -0.77870       -2.40527       -0.49757
H          1.81986       -1.95313        0.51789
