19
dsC7O2H10nsd_0307.xyz
C          1.81317        0.63325        0.56238
C          1.95125       -0.89462        0.31408
C          0.67265       -0.85473       -0.57517
C         -0.58218       -1.25184        0.16055
O         -1.81917       -0.98665       -0.51282
C         -1.51245       -0.22198        0.65000
C         -1.21003        1.24539        0.44099
O         -0.31087        1.50217       -0.61740
C          0.83845        0.69252       -0.65030
H          1.31576        0.84939        1.51091
H          2.71490        1.24554        0.49999
H          2.84255       -1.14888       -0.26367
H          1.91430       -1.54362        1.19283
H          0.72286       -1.39588       -1.52427
H         -0.55238       -2.21708        0.66979
H         -2.13611       -0.43539        1.52010
H         -2.12966        1.78262        0.18554
H         -0.84294        1.66022        1.39475
H          1.36581        0.99095       -1.55938
