19
dsC7O2H10nsd_4985.xyz
O          2.62189        0.60760       -0.13623
C          1.91649       -0.62581       -0.04709
C          0.43462       -0.44711        0.05733
C         -0.67874       -1.23449        0.74405
C         -1.55392       -1.17108       -0.50963
C         -0.58623       -0.07010       -1.05460
O         -1.04580        1.24249       -0.77204
C         -1.14220        1.33837        0.65750
C         -0.31864        0.17390        1.19576
H          2.22848        1.11827       -0.85137
H          2.16113       -1.27958       -0.90039
H          2.29675       -1.12092        0.85333
H         -0.58155       -2.07811        1.41827
H         -1.48716       -2.09278       -1.09429
H         -2.60530       -0.88316       -0.40759
H         -0.29788       -0.11877       -2.10501
H         -0.73311        2.30564        0.96997
H         -2.19485        1.29496        0.96852
H          0.17632        0.27167        2.15482
