19
dsC7O2H10nsd_3995.xyz
C         -2.92183        0.52050        0.05506
C         -1.53845        0.18970       -0.46755
O         -1.19012       -1.20336       -0.20425
C         -0.13488       -0.82502        0.70539
C         -0.33729        0.68618        0.35951
C          1.01136        0.71772       -0.42223
C          2.10093        1.64379        0.12065
C          1.22474       -0.76654       -0.02951
O          2.13298       -1.53084       -0.16995
H         -2.98759        0.34165        1.13280
H         -3.16145        1.57185       -0.13964
H         -3.67206       -0.10139       -0.44255
H         -1.47102        0.40687       -1.54195
H         -0.20872       -1.31052        1.68227
H         -0.50345        1.46517        1.10205
H          0.89196        0.86953       -1.50110
H          2.22592        1.52242        1.20203
H          3.06042        1.41784       -0.35283
H          1.85557        2.69211       -0.07533
