19
dsC7O2H10nsd_5743.xyz
C          3.16621       -0.75736       -0.07178
C          2.28887        0.49364        0.03329
C          0.85410        0.26748       -0.44015
C         -0.10230        1.49381       -0.26910
C         -0.98519        0.67460        0.72484
C         -0.04503       -0.53867        0.53066
O         -1.11196       -1.25810       -0.16693
C         -1.99939       -0.21682        0.01525
O         -3.13604       -0.16880       -0.32772
H          2.75876       -1.58652        0.51657
H          3.24329       -1.09785       -1.10974
H          4.17897       -0.56069        0.29216
H          2.27576        0.85403        1.07144
H          2.72793        1.30527       -0.56030
H          0.85084       -0.16829       -1.44355
H          0.38817        2.33855        0.22002
H         -0.61277        1.85783       -1.16250
H         -1.28000        1.12008        1.67228
H          0.38940       -1.14729        1.32277
