19
dsC7O2H10nsd_1152.xyz
C         -2.24111        1.23108       -0.10739
C         -1.80883       -0.20282        0.10978
O         -2.34084       -1.14039       -0.43691
C         -0.61117       -0.41812        1.04275
C          0.69171       -0.19557        0.31857
C          2.14722       -0.24213        0.85845
C          2.15295        0.34083       -0.57285
C          1.19069       -0.77509       -1.03387
O          0.97947        1.17209       -0.20779
H         -3.06198        1.27084       -0.82427
H         -2.55626        1.67911        0.84226
H         -1.38543        1.81305       -0.46671
H         -0.65426        0.26165        1.90115
H         -0.64175       -1.45110        1.40039
H          2.36764        0.47285        1.65217
H          2.60312       -1.22201        1.02052
H          2.95914        0.83100       -1.11681
H          0.57412       -0.53406       -1.90009
H          1.55786       -1.80401       -1.04371
