19
dsC7O2H10nsd_4096.xyz
O         -2.35645       -0.01929       -0.76564
C         -1.01652        0.36933       -0.68024
C         -0.64103        1.60810        0.18562
C          0.52634        0.78741        0.81218
C          1.86678        0.86094        0.13457
C          2.15240       -0.23875       -0.56784
C          1.05700       -1.27868       -0.50788
C         -0.08035       -0.52472        0.20422
O         -0.90753       -1.30272        1.04345
H         -2.55463       -0.48077        0.05962
H         -0.63468        0.45664       -1.70174
H         -0.38403        2.52814       -0.34484
H         -1.42545        1.82298        0.91641
H          0.59806        0.84841        1.90446
H          2.52092        1.72191        0.22812
H          3.07091       -0.39706       -1.12298
H          0.75174       -1.64119       -1.49728
H          1.36821       -2.16665        0.06301
H         -0.38693       -1.61812        1.78891
