19
dsC7O2H10nsd_3558.xyz
C         -0.44182        1.97066        0.91768
C         -0.70623        1.00851       -0.24937
C          0.58071        0.64941       -1.01139
C          1.51801       -0.22696       -0.19297
O          2.72702       -0.15299       -0.27711
C          0.86166       -1.22602        0.68524
C         -0.46208       -1.25882        0.86601
C         -1.41179       -0.28242        0.21424
O         -2.00676       -0.99026       -0.87717
H          0.01898        2.89528        0.55715
H         -1.37314        2.23800        1.42813
H          0.23154        1.53269        1.66121
H         -1.39145        1.50902       -0.94710
H          0.31214        0.07003       -1.90431
H          1.12910        1.53473       -1.34257
H          1.52703       -1.93266        1.17215
H         -0.91397       -2.02951        1.48520
H         -2.18858       -0.01568        0.94864
H         -2.74446       -0.46214       -1.20095
