19
dsC7O2H10nsd_5122.xyz
C          2.78392        0.81491       -0.20585
C          2.05378       -0.36632        0.44887
C          0.58255       -0.35233        0.17322
O          0.12815       -0.73589       -1.12848
C         -0.42620       -1.42485       -0.00212
C         -1.53480       -0.51566        0.60388
O         -2.31490        0.24313       -0.33004
C         -1.39041        1.36147       -0.25679
C         -0.49265        0.61441        0.75655
H          3.85494        0.78082        0.01309
H          2.65591        0.79373       -1.29192
H          2.39791        1.77213        0.16035
H          2.46449       -1.31305        0.08087
H          2.21055       -0.34820        1.53473
H         -0.33855       -2.50657        0.00093
H         -2.11185       -0.94323        1.42785
H         -0.94265        1.58643       -1.22862
H         -1.88540        2.25119        0.14924
H         -0.26854        1.07898        1.71510
