19
dsC7O2H10nsd_5095.xyz
O         -2.90606       -0.77510        0.05225
C         -1.94772       -0.10638       -0.76010
C         -0.67171        0.18190       -0.03148
C         -0.42667        1.46482        0.73012
C          0.46694        1.10850       -0.42854
C          1.48242       -0.03853       -0.12673
O          2.50417       -0.33297       -1.00958
C          1.43625       -0.55198        1.28461
C          0.35509       -0.94525        0.29258
H         -3.01797       -0.24745        0.85013
H         -1.76452       -0.78171       -1.60375
H         -2.35224        0.83197       -1.17436
H         -1.13969        2.25568        0.50918
H         -0.07184        1.48469        1.75437
H          0.54408        1.71592       -1.32195
H          3.27341        0.19576       -0.76702
H          2.14945       -1.35342        1.45528
H          1.25510        0.06474        2.15885
H          0.17178       -1.98008        0.03514
