19
dsC7O2H10nsd_2519.xyz
C          2.34468        1.31072        0.19099
C          1.29559        0.28605       -0.09085
C          0.03226        0.44322       -0.47863
C         -1.01604        1.49903       -0.38196
C         -1.99311        0.73279        0.55553
O         -1.87454       -0.66177        0.23213
C         -0.67461       -0.88223       -0.49307
O          0.22642       -1.80024        0.09136
C          1.51724       -1.19176        0.16110
H          3.20659        1.19013       -0.47735
H          1.96110        2.32559        0.05851
H          2.72710        1.21500        1.21477
H         -0.67284        2.44140        0.05019
H         -1.49523        1.70977       -1.34526
H         -1.71497        0.90306        1.60463
H         -3.03951        1.02208        0.42123
H         -0.96743       -1.27448       -1.47991
H          2.19303       -1.66269       -0.57090
H          1.95090       -1.36070        1.15750
