19
dsC7O2H10nsd_5330.xyz
C          3.09624        0.23724        0.80853
C          2.37674       -0.41841       -0.38372
C          0.88743       -0.23922       -0.36049
C         -0.02983       -1.20944       -0.25848
C         -1.44148       -0.69605       -0.33931
O         -2.32242       -1.21564        0.63028
C         -1.22030        0.81514       -0.15615
O         -2.06191        1.55797        0.27984
C          0.23934        1.12981       -0.47205
H          2.73691       -0.17553        1.75602
H          4.17446        0.06294        0.74830
H          2.93733        1.31969        0.83186
H          2.77826        0.00529       -1.31515
H          2.60605       -1.48955       -0.40492
H          0.19208       -2.26738       -0.17654
H         -1.85275       -0.86369       -1.35425
H         -2.90444       -0.48236        0.87544
H          0.32392        1.55019       -1.48496
H          0.63398        1.88726        0.21326
