19
dsC7O2H10nsd_5030.xyz
C          0.69092        2.05625       -0.39724
C         -0.32794        0.95027       -0.62153
C         -1.32430        0.66655        0.55512
O         -0.25979       -0.10179        1.21195
C          0.03703       -0.52178       -0.17232
C          1.37614       -1.20034       -0.31433
O          2.42155       -0.45624        0.27657
C         -1.25990       -1.26537       -0.54313
C         -2.19119       -0.45304       -0.03932
H          1.53541        1.95933       -1.08517
H          0.22490        3.03258       -0.57321
H          1.08313        2.04041        0.62109
H         -0.78580        1.02316       -1.61165
H         -1.76628        1.44526        1.17583
H          1.30539       -2.21034        0.12274
H          1.61944       -1.31876       -1.37630
H          2.09774       -0.18757        1.14495
H         -1.34333       -2.19704       -1.08383
H         -3.26925       -0.51801       -0.04602
