19
dsC7O2H10nsd_5001.xyz
C         -2.98860       -0.68024        0.16704
O         -2.21486        0.41132       -0.29841
C         -0.86312        0.26654       -0.11446
C          0.08791       -0.84666       -0.67337
C          0.98666        0.16919        0.07618
C          0.15832        1.32161       -0.59093
C         -0.06877        0.18870        1.23443
C          2.46151        0.12806        0.24811
O          3.17503       -0.75252       -0.16390
H         -2.86716       -0.83037        1.24882
H         -4.03275       -0.44102       -0.04300
H         -2.72360       -1.61299       -0.34932
H          0.01593       -1.84150       -0.22918
H          0.20781       -0.89051       -1.75784
H          0.14735        2.28293       -0.07203
H          0.28064        1.43532       -1.67051
H         -0.14676       -0.73211        1.81716
H         -0.08855        1.08025        1.86584
H          2.88232        0.99640        0.80657
