19
dsC7O2H10nsd_0812.xyz
O          3.14191       -0.45446        0.20261
C          2.35549        0.45213        0.03913
C          0.89167        0.28744       -0.02717
C          0.14564        1.38701       -0.21539
C         -1.35592        1.46733       -0.25606
C         -2.04840        0.42633        0.63988
C         -2.02763       -0.99257        0.05258
O         -0.84191       -1.31658       -0.64721
C          0.35941       -1.12703        0.07430
H          2.70476        1.50399       -0.07068
H          0.67801        2.33057       -0.33670
H         -1.65585        2.47454        0.05411
H         -1.69863        1.36238       -1.29570
H         -1.56684        0.43885        1.62427
H         -3.09359        0.71143        0.80639
H         -2.21668       -1.72590        0.85381
H         -2.82490       -1.10272       -0.69022
H          0.24648       -1.43016        1.12778
H          1.10564       -1.79853       -0.35993
