19
dsC7O2H10nsd_5716.xyz
C         -3.58567        0.31684       -0.18115
C         -2.23786        0.71205        0.43354
C         -1.07392        0.09491       -0.30207
O         -0.83276       -1.30377       -0.07534
C          0.14238       -0.36825        0.37415
C          1.48948       -0.41651       -0.33143
O          2.27950       -1.51227        0.11472
C          2.18830        0.86360       -0.17697
C          2.76163        1.90377        0.00908
H         -3.65908        0.64794       -1.22283
H         -3.71114       -0.76978       -0.16482
H         -4.41657        0.76518        0.37106
H         -2.12058        1.80328        0.41848
H         -2.19789        0.39981        1.48301
H         -0.98359        0.38277       -1.35252
H          0.20743       -0.25932        1.45903
H          1.30173       -0.61488       -1.39281
H          2.62568       -1.28882        0.98600
H          3.27406        2.82365        0.14952
