19
dsC7O2H10nsd_1776.xyz
O         -2.20732       -1.08622       -0.07820
C         -1.02374       -0.33449        0.00147
C          0.03843       -0.69320        1.08667
C          1.08417       -0.28382       -0.00083
O          2.31846       -0.94438       -0.07934
C          0.03665       -0.71067       -1.06079
C          1.17473        1.23250       -0.01259
C          0.04051        1.93163       -0.00889
C         -1.27499        1.18521       -0.00551
H         -2.80677       -0.78040        0.61171
H          0.03588       -0.14571        2.03312
H          0.05373       -1.77279        1.25442
H          2.85760       -0.66530        0.66881
H          0.03230       -0.18794       -2.01914
H          0.05108       -1.79306       -1.20701
H          2.15809        1.69279       -0.04342
H          0.02743        3.01699       -0.02412
H         -1.87537        1.46761        0.87382
H         -1.87770        1.44955       -0.88509
