19
dsC7O2H10nsd_1119.xyz
C          2.92784       -0.58462       -0.31676
C          1.72702        0.29150       -0.01299
O          1.72494        1.47962       -0.24496
C          0.51517       -0.42522        0.56214
C         -0.58882        0.51450        1.14602
C         -1.53367        0.06583        0.01679
C         -2.66515        0.81645       -0.60215
O         -1.64432       -1.36882        0.12614
C         -0.50527       -0.82802       -0.54018
H          3.36417       -0.94573        0.62223
H          2.62989       -1.47240       -0.88571
H          3.67728       -0.01746       -0.86986
H          0.82139       -1.27388        1.17995
H         -0.93243        0.29234        2.15849
H         -0.28539        1.55926        1.05738
H         -3.49509        0.92014        0.10600
H         -2.34461        1.82084       -0.89564
H         -3.03538        0.29047       -1.48606
H         -0.30755       -1.16251       -1.55342
