19
dsC7O2H10nsd_3249.xyz
C          2.34224       -0.49933        0.16642
C          0.85955       -0.26821        0.11123
O          0.27478       -0.66893       -1.16579
C         -0.90610       -1.20070       -0.50542
C         -1.94152       -0.09443       -0.21318
C         -1.06308        0.37726        0.97103
C          0.23371        1.10238        0.48229
O          0.16034        2.04613       -0.54698
C         -0.27282       -0.98869        0.89851
H          2.73324       -0.24574        1.15692
H          2.58488       -1.54351       -0.05121
H          2.84855        0.13254       -0.57173
H         -1.22134       -2.14682       -0.94944
H         -2.16054        0.62004       -1.01214
H         -2.87802       -0.53341        0.14551
H         -1.55456        0.76855        1.86092
H          0.75365        1.56090        1.33071
H          0.05377        1.52811       -1.35783
H         -0.15239       -1.72792        1.68515
