19
dsC7O2H10nsd_4727.xyz
C          2.33013       -0.14755       -0.38715
C          0.92416       -0.68579       -0.22556
O          0.63065       -1.80307       -0.59121
C         -0.13562        0.23781        0.44225
C          0.37228        0.69829        1.83131
C         -1.46442       -0.54858        0.62847
O         -2.03322       -1.00155       -0.57082
C         -0.33643        1.39314       -0.43183
C         -0.48648        2.34909       -1.14561
H          2.86904       -0.75831       -1.11232
H          2.31979        0.89990       -0.69710
H          2.85479       -0.20410        0.57346
H         -0.39533        1.30637        2.31754
H          0.58310       -0.16638        2.46896
H          1.27647        1.30422        1.74945
H         -1.26397       -1.37541        1.32740
H         -2.19344        0.11952        1.09758
H         -1.41201       -1.65383       -0.91934
H         -0.63966        3.18652       -1.78078
