19
dsC7O2H10nsd_0229.xyz
C         -2.40783       -0.10093       -0.61308
C         -1.56658        0.74345        0.32273
C         -0.29328        1.41505       -0.18216
C          0.91375        0.76614        0.50515
O          2.11362        0.73264       -0.30509
C          2.09001       -0.71163       -0.37013
C          0.83418       -0.77919        0.50810
O         -0.29667       -1.29506       -0.16975
C         -1.48298       -0.76573        0.35803
H         -3.47382       -0.16969       -0.42611
H         -2.12312       -0.12943       -1.65936
H         -2.08102        1.23471        1.14231
H         -0.17939        1.26981       -1.25984
H         -0.31544        2.49333       -0.00388
H          1.11542        1.22160        1.48249
H          1.93540       -1.08529       -1.38878
H          2.99813       -1.15582        0.05321
H          0.95710       -1.26240        1.48542
H         -1.89256       -1.32048        1.20147
