19
dsC7O2H10nsd_1682.xyz
O         -0.22282        1.57011       -0.06229
C          0.18310        0.21630       -0.18230
C         -1.05179       -0.61446       -0.54795
C         -2.19284       -0.33472        0.41018
O         -3.30653       -0.02657        0.07378
C          1.15559       -0.21601        0.95920
C          1.68690       -1.33154        0.01231
C          1.56018       -0.06395       -0.88125
C          2.22031        0.71630        0.29794
H         -0.73339        1.80743       -0.84405
H         -1.39208       -0.37109       -1.56188
H         -0.84654       -1.68955       -0.52257
H         -1.92708       -0.44742        1.48561
H          0.92189       -0.30144        2.02138
H          2.70917       -1.65826        0.21233
H          1.04674       -2.18869       -0.19925
H          1.78678        0.02076       -1.94580
H          3.26189        0.46160        0.50574
H          2.03872        1.78678        0.34772
