19
dsC7O2H10nsd_4859.xyz
C          2.70108        0.37738       -0.48052
C          1.33540       -0.19617       -0.86574
C          0.28857       -0.08632        0.26881
O          0.73738       -0.77413        1.42764
C         -0.11906        1.33127        0.58630
C         -1.34416        1.62311        0.14507
C         -2.03123        0.44923       -0.50871
C         -1.05372       -0.68722       -0.20792
O         -1.26749       -1.87212       -0.24271
H          3.43734        0.18370       -1.26611
H          2.65461        1.46083       -0.33006
H          3.05601       -0.07967        0.44645
H          0.95090        0.30296       -1.76417
H          1.42985       -1.26164       -1.11170
H          0.50763       -1.70355        1.28876
H          0.54314        2.01702        1.10028
H         -1.82226        2.59141        0.23913
H         -3.02723        0.22451       -0.11087
H         -2.15044        0.56676       -1.59489
