19
dsC7O2H10nsd_1491.xyz
C         -1.75429       -1.06874       -0.83573
C         -1.03906       -0.03164        0.03496
O         -1.94018        0.43886        1.05028
C         -0.59559        1.19984       -0.73346
C          0.65739        1.56453       -0.46851
C          1.32247        0.62344        0.49721
O          2.27073       -0.28089       -0.13405
C          1.30595       -1.35231       -0.11941
C          0.28478       -0.50959        0.68336
H         -2.68394       -0.64306       -1.22507
H         -1.14311       -1.38988       -1.68287
H         -2.00738       -1.96079       -0.24898
H         -2.37407       -0.33041        1.43639
H         -1.28043        1.71670       -1.39748
H          1.17051        2.41812       -0.89727
H          1.77191        1.11282        1.36765
H          0.99850       -1.64240       -1.13158
H          1.69612       -2.23666        0.39729
H          0.11757       -0.86139        1.70161
