19
dsC7O2H10nsd_1236.xyz
C          3.39703       -1.05794        0.51188
C          2.66726       -0.02624       -0.37102
C          3.03112        1.41737        0.03154
C          1.21872       -0.22608       -0.32788
C          0.02587       -0.38028       -0.27242
C         -1.40584       -0.60692       -0.22542
O         -2.06733        0.62703        0.16051
C         -3.40092        0.54670        0.23843
O         -4.06356       -0.43088        0.02123
H          3.11236       -0.93631        1.56146
H          3.15191       -2.07956        0.21000
H          4.48038       -0.92410        0.43152
H          2.99615       -0.17775       -1.40858
H          4.11231        1.56816       -0.04697
H          2.53147        2.14443       -0.61361
H          2.72968        1.61627        1.06437
H         -1.79911       -0.92463       -1.19708
H         -1.67084       -1.38555        0.49789
H         -3.79655        1.53007        0.53631
