19
dsC7O2H10nsd_5557.xyz
C         -0.76856        2.44629        0.29504
C         -0.73481        0.97862        0.00245
C         -1.71055        0.24771       -0.55318
C         -1.35999       -1.19998       -0.54924
O         -1.17014       -1.73318        0.78612
C         -0.02158       -1.30728        0.05486
C          0.46111        0.10472        0.37747
C          1.73528        0.45111       -0.41166
O          2.81474       -0.41926       -0.11199
H         -0.67192        2.63502        1.37191
H          0.05820        2.97939       -0.19014
H         -1.70547        2.89728       -0.04245
H         -2.65919        0.63538       -0.90588
H         -1.76229       -1.90518       -1.26963
H          0.70222       -2.07741       -0.19353
H          0.68302        0.20212        1.45098
H          1.54674        0.33134       -1.48396
H          2.01049        1.50288       -0.24324
H          3.03599       -0.30847        0.81851
