19
dsC7O2H10nsd_4720.xyz
C         -2.37727       -1.49859       -0.29149
O         -1.19719       -1.13579        0.39767
C         -0.51623       -0.02713       -0.16378
C         -1.28180        1.22296       -0.04937
C         -1.89923        2.24887        0.05908
C          0.82474        0.07538        0.55957
C          1.86695        0.99891       -0.10420
O          2.67702       -0.12781       -0.49891
C          1.82649       -1.04655        0.22062
H         -2.16662       -1.76125       -1.33964
H         -2.78520       -2.37362        0.21893
H         -3.12152       -0.69145       -0.27572
H         -0.32378       -0.21776       -1.23510
H         -2.44646        3.15489        0.14988
H          0.64426        0.24492        1.62179
H          1.51713        1.58267       -0.96453
H          2.39819        1.66726        0.58470
H          1.44589       -1.85214       -0.41800
H          2.33763       -1.48786        1.08507
