19
dsC7O2H10nsd_5081.xyz
C         -2.42198       -0.97193       -0.77322
C         -1.70739        0.18938       -0.06791
C         -1.19343       -0.17834        1.31419
C          0.13598       -0.10230        1.40666
C          0.71992        0.40433        0.12474
C          2.13327        0.09075       -0.29415
O          2.41582       -1.29744       -0.21787
O          0.24688        1.73046       -0.21882
C         -0.42620        0.60790       -0.78885
H         -2.76111       -0.67600       -1.77185
H         -1.75518       -1.83427       -0.87958
H         -3.29735       -1.29750       -0.20326
H         -2.39242        1.04546       -0.00518
H         -1.86664       -0.45133        2.11994
H          0.73631       -0.33439        2.27734
H          2.31264        0.50570       -1.29655
H          2.83927        0.57421        0.39028
H          1.79484       -1.75462       -0.79454
H         -0.35291        0.51995       -1.87192
