19
dsC7O2H10nsd_2070.xyz
C         -0.25108        2.15578       -0.33073
C          0.25958        0.78920        0.02296
O          1.29590        0.70326        1.02260
C          1.59047        0.25152       -0.30862
C          1.53403       -1.25648       -0.45674
C          0.19626       -1.64545        0.22352
C         -0.67456       -0.39572        0.12146
C         -2.06421       -0.32033        0.57554
O         -1.75803       -0.40264       -0.82217
H         -0.86213        2.56433        0.48162
H          0.58027        2.84310       -0.50291
H         -0.87060        2.10486       -1.22975
H          2.33178        0.83957       -0.84482
H          1.52806       -1.51042       -1.52303
H          2.39592       -1.75390       -0.00243
H         -0.29541       -2.49699       -0.25102
H          0.36495       -1.88871        1.27538
H         -2.53423       -1.20588        1.00208
H         -2.48450        0.62798        0.90717
