19
dsC7O2H10nsd_0708.xyz
O         -2.63529       -0.25713        0.28469
C         -1.48217       -0.12802       -0.02719
C         -0.89149        1.23325       -0.38854
C          0.43605        1.68787        0.24843
C          1.57083        0.65893        0.18933
C          1.29730       -0.57826        1.09294
C          0.69803       -1.29387       -0.14061
C          1.47648       -0.29572       -1.03846
O         -0.73145       -1.25340       -0.18437
H         -0.78236        1.22885       -1.48011
H         -1.67833        1.95371       -0.15927
H          0.74155        2.60423       -0.26926
H          0.26540        1.96811        1.29506
H          2.53183        1.15586        0.34304
H          2.21900       -1.06253        1.42529
H          0.63220       -0.45201        1.95209
H          0.92319       -2.35239       -0.27284
H          2.45092       -0.71928       -1.29595
H          1.00033        0.05464       -1.95604
