19
dsC7O2H10nsd_0364.xyz
C          1.99303        1.02027        0.12059
O          2.85388       -0.05943       -0.28817
C          1.89365       -1.04774        0.14702
C          0.85457        0.04203        0.48786
C         -0.36988        0.07819       -0.42362
O         -1.15944       -1.09744       -0.21062
C         -2.50152       -0.74787        0.11942
C         -2.51557        0.75416        0.15821
C         -1.31439        1.22161       -0.15912
H          2.41150        1.58702        0.96234
H          1.78659        1.71604       -0.70414
H          1.61526       -1.73873       -0.65705
H          2.26181       -1.62569        1.00367
H          0.53337        0.06656        1.53126
H         -0.01707        0.08546       -1.47037
H         -3.19337       -1.15185       -0.63716
H         -2.77911       -1.20064        1.08382
H         -3.39724        1.33268        0.40340
H         -1.01663        2.26020       -0.22754
