19
dsC7O2H10nsd_3323.xyz
C          2.20434        0.52448       -0.76075
C          0.72047        0.20866       -0.87420
C          0.15095       -1.22179       -0.55687
C          0.59097       -1.44967        0.91041
C          0.27375       -0.04107        1.51892
C         -0.28878        0.66303        0.27081
O         -0.72907        1.95958        0.44998
C         -1.15624       -0.44308       -0.34258
O         -2.29406       -0.50128       -0.71410
H          2.64738        0.17167        0.17347
H          2.76091        0.06708       -1.58514
H          2.35997        1.60708       -0.81327
H          0.34053        0.55157       -1.84261
H          0.22331       -2.04542       -1.26261
H          0.01789       -2.24903        1.38664
H          1.64897       -1.71134        0.98357
H         -0.47072       -0.07600        2.31793
H          1.15781        0.47024        1.90708
H         -1.47374        2.10436       -0.14647
