19
dsC7O2H10nsd_5423.xyz
C          0.68121        2.54643        0.09602
O         -0.40345        1.73782       -0.31845
C         -0.33940        0.42876        0.14438
C         -1.53483       -0.46837       -0.23285
O         -2.63647       -0.58294        0.62347
C         -0.54852       -1.65249       -0.41860
C          0.60218       -0.60755       -0.58018
C          1.90043       -0.89723       -0.01508
C          2.96794       -1.13572        0.48681
H          1.64061        2.17078       -0.28523
H          0.50580        3.54825       -0.30217
H          0.74340        2.60252        1.19332
H         -0.14958        0.39056        1.23061
H         -1.93138       -0.13767       -1.19756
H         -2.31959       -0.87421        1.48504
H         -0.42759       -2.22180        0.50787
H         -0.72146       -2.34385       -1.24374
H          0.69072       -0.30858       -1.62993
H          3.91430       -1.34801        0.91871
