19
dsC7O2H10nsd_2488.xyz
C         -1.18332        1.77278       -0.65632
C         -0.33887        0.63228       -0.11068
C          0.67064        1.01747        0.99248
C          1.77009       -0.06278        0.93248
C          1.87557       -0.40305       -0.56916
C          0.44349       -0.30826       -1.07237
O         -0.37653       -1.44843       -0.62207
C         -1.10945       -0.65334        0.22107
O         -2.01706       -0.97639        0.91970
H         -1.83857        1.43972       -1.46713
H         -1.81744        2.18715        0.13358
H         -0.54790        2.57878       -1.03804
H          1.09030        2.00170        0.75025
H          0.19534        1.09662        1.97400
H          2.71762        0.27545        1.35802
H          1.46072       -0.95005        1.49417
H          2.47638        0.35174       -1.09167
H          2.32157       -1.38044       -0.77119
H          0.32181       -0.17274       -2.14801
