19
dsC7O2H10nsd_1523.xyz
C          2.20734       -1.02631       -0.41407
C          1.24996        0.07156       -0.00959
C          1.60210        1.47380       -0.45193
O          0.74635       -0.02878        1.33125
C         -0.16629       -0.27421        0.28036
C         -0.95564       -1.57318        0.02965
C         -2.15790       -0.72255       -0.48747
C         -1.40660        0.55053       -0.03812
O         -1.69489        1.70885        0.05438
H          2.26955       -1.10463       -1.50466
H          3.21213       -0.80462       -0.03816
H          1.89612       -1.99092       -0.00797
H          1.70151        1.52092       -1.54154
H          0.83435        2.18245       -0.13724
H          2.56142        1.77255       -0.01539
H         -0.51624       -2.26594       -0.69004
H         -1.17454       -2.11026        0.95517
H         -2.31629       -0.75957       -1.56902
H         -3.11750       -0.87834        0.01084
