19
dsC7O2H10nsd_5844.xyz
C         -2.90065       -1.02763        0.08022
C         -1.40744       -1.04588        0.41559
C         -0.59323       -0.08861       -0.46412
O         -1.05879        1.25869       -0.29362
C         -0.00334        2.10780        0.14209
C          1.19978        1.22656        0.23741
C          0.87922       -0.02087       -0.11854
C          1.81807       -1.15467       -0.18510
O          2.98757       -1.09220        0.12187
H         -3.30523       -0.01886        0.19479
H         -3.07711       -1.34535       -0.95352
H         -3.45950       -1.70045        0.73709
H         -1.24842       -0.76900        1.46471
H         -1.00602       -2.06026        0.28999
H         -0.74115       -0.37240       -1.52018
H          0.14553        2.92858       -0.57815
H         -0.25781        2.57400        1.10738
H          2.18404        1.56031        0.54026
H          1.38100       -2.10875       -0.55371
