19
dsC7O2H10nsd_4327.xyz
C          0.25576        2.13910       -0.15791
C          0.67123        0.77075        0.38276
C          2.18810        0.45866        0.24023
C          2.22526       -1.00251       -0.12616
C          1.01816       -1.48497       -0.41160
C         -0.04414       -0.43108       -0.29179
O         -1.13001       -0.94985        0.53390
C         -2.35770       -0.47081        0.30869
O         -2.66885        0.37583       -0.48596
H          0.50819        2.23031       -1.22074
H         -0.82166        2.29270       -0.05978
H          0.77201        2.94393        0.37564
H          0.41191        0.70871        1.44563
H          2.64026        1.06802       -0.55500
H          2.75263        0.68302        1.15274
H          3.14917       -1.56820       -0.18110
H          0.78769       -2.49456       -0.73057
H         -0.48668       -0.15951       -1.25556
H         -3.06261       -0.98712        0.97987
