19
dsC7O2H10nsd_1115.xyz
C         -2.85960       -0.78125       -0.89108
C         -1.91420        0.13387       -0.14010
O         -2.19158        1.28747        0.11341
C         -0.60910       -0.46682        0.27904
C          0.00001       -0.00012        1.57198
C          0.60909        0.46677        0.27909
C          1.91417       -0.13386       -0.14017
C          2.85959        0.78139       -0.89097
O          2.19160       -1.28747        0.11325
H         -3.09295       -1.66359       -0.28400
H         -3.77788       -0.24864       -1.13977
H         -2.38111       -1.14704       -1.80702
H         -0.40072       -1.48920       -0.01455
H         -0.56587        0.73258        2.13503
H          0.56591       -0.73291        2.13489
H          0.40070        1.48919       -0.01435
H          3.77789        0.24882       -1.13972
H          2.38113        1.14733       -1.80687
H          3.09293        1.66363       -0.28374
