19
dsC7O2H10nsd_0980.xyz
O          3.91287       -0.18022       -0.56713
C          3.04094        0.36865        0.05473
C          1.75498       -0.28528        0.50926
C          0.51771        0.47706        0.00201
C         -0.79622       -0.11216        0.50380
C         -1.33952       -1.45752       -0.08098
C         -2.74680       -0.81708       -0.28509
C         -2.09991        0.54602        0.00788
O         -2.41979        1.68322       -0.18185
H          3.13043        1.44404        0.33941
H          1.75670       -1.32650        0.17410
H          1.75209       -0.28080        1.60935
H          0.57102        1.52738        0.31415
H          0.51635        0.48199       -1.09522
H         -0.80388       -0.13591        1.60209
H         -0.86023       -1.71310       -1.02952
H         -1.29607       -2.32382        0.57965
H         -3.22804       -0.92041       -1.26056
H         -3.47008       -1.09504        0.48862
