19
dsC7O2H10nsd_0994.xyz
C          3.42564       -0.54877       -0.07218
C          2.04688       -0.08216       -0.04029
C          0.90632        0.30228       -0.00027
C         -0.49050        0.77213        0.05399
C         -0.56015        2.25988       -0.31589
O         -1.02140        0.67194        1.37039
C         -1.35431       -0.06081       -0.92605
C         -1.52136       -1.51307       -0.54719
O         -1.24313       -1.99071        0.52750
H          3.64208       -1.19511        0.78542
H          3.63051       -1.12545       -0.98091
H          4.13124        0.28874       -0.04362
H          0.04976        2.83649        0.38252
H         -0.19056        2.42953       -1.33040
H         -1.59515        2.60659       -0.24454
H         -0.98539       -0.26804        1.59929
H         -2.36724        0.36718       -0.97176
H         -0.95563       -0.01336       -1.94685
H         -1.95855       -2.15326       -1.34504
