19
dsC7O2H10nsd_1907.xyz
C          2.29542        0.43618       -0.51711
C          0.99027       -0.11365       -0.04059
O          0.99793       -1.12683        0.96299
C          0.35186       -1.43572       -0.29698
C         -1.01857       -0.78595       -0.18656
O         -2.14022       -1.14018       -0.40153
C         -0.37907        0.61531        0.10664
C         -0.70458        1.55980       -1.05497
C         -0.67197        1.24029        1.46685
H          3.02453       -0.36851       -0.64104
H          2.17546        0.95501       -1.47251
H          2.69933        1.15214        0.20720
H          0.69559       -2.31327       -0.83297
H         -0.14039        2.49423       -0.96365
H         -0.46818        1.11249       -2.02653
H         -1.77100        1.80280       -1.05246
H         -0.15268        2.19895        1.57961
H         -1.74528        1.42877        1.57196
H         -0.35924        0.57583        2.27511
