19
dsC7O2H10nsd_1147.xyz
C          2.09433       -1.08638        0.83698
C          1.74157        0.07301       -0.06312
O          2.51680        0.95339       -0.35282
C          0.30403        0.13489       -0.61809
O         -0.35622       -1.08762       -0.35937
C         -1.76563       -1.01449       -0.52930
C         -2.39410       -0.05841        0.48494
C         -1.62027        1.23357        0.50830
C         -0.40375        1.32832       -0.02212
H          1.95971       -2.03093        0.30111
H          3.12443       -0.98177        1.17893
H          1.40716       -1.12032        1.68855
H          0.41603        0.28846       -1.70704
H         -2.00446       -0.68265       -1.55212
H         -2.13714       -2.03551       -0.40903
H         -3.44207        0.12648        0.21720
H         -2.40825       -0.51652        1.48331
H         -2.08985        2.10419        0.95798
H          0.15270        2.25937       -0.04698
