19
dsC7O2H10nsd_4196.xyz
C         -2.76731        0.44228        0.09836
C         -1.31026        0.23996       -0.32543
C         -0.92867       -1.25503       -0.33097
C          0.56547       -1.52670       -0.35831
O          1.25142       -1.34246        0.87477
C          1.56301       -0.43838       -0.19588
C          1.06206        0.96615       -0.01287
O          1.72603        1.91715       -0.35712
C         -0.34090        1.06421        0.55491
H         -2.92132        0.11746        1.13385
H         -3.05614        1.49573        0.03023
H         -3.44730       -0.13453       -0.53763
H         -1.20161        0.61194       -1.35388
H         -1.32966       -1.74378        0.56675
H         -1.39901       -1.74805       -1.18901
H          0.88985       -2.40970       -0.90950
H          2.56068       -0.52930       -0.62042
H         -0.34736        0.66977        1.57811
H         -0.62820        2.11805        0.58152
