19
dsC7O2H10nsd_1986.xyz
C          0.28040        2.14030        0.28587
C          0.36145        0.67268       -0.06078
C          1.50706        0.14824       -0.95804
O          1.81914       -0.90606       -0.01160
C          0.82875       -0.41469        0.93024
C         -0.55641       -1.08977        0.90279
C         -0.88984       -1.51839       -0.50949
C         -1.00923       -0.06958       -0.14380
O         -2.21526        0.60902       -0.19016
H         -0.40639        2.30951        1.12064
H          1.26499        2.53197        0.56106
H         -0.09301        2.72573       -0.56198
H          1.24289       -0.24291       -1.94818
H          2.34733        0.84742       -1.05947
H          1.25178       -0.19600        1.91396
H         -1.07914       -1.49557        1.76018
H         -0.10983       -1.90308       -1.15715
H         -1.84924       -2.01915       -0.59619
H         -2.53346        0.60573       -1.09954
