19
dsC7O2H10nsd_2424.xyz
O          2.54488       -0.08185       -0.44928
C          1.20501        0.00539       -0.06907
C          0.79646        1.38594        0.43328
C         -0.71751        1.46515        0.12096
C         -1.12976        0.00983       -0.12907
O         -2.40847       -0.04681       -0.68944
C         -0.82798       -0.87711        1.12667
C          0.52449       -1.22284        0.50531
C          0.09630       -0.64800       -0.85042
H          2.78219       -1.00897       -0.55180
H          1.01646        1.51072        1.49862
H          1.36680        2.14673       -0.10608
H         -1.30489        1.91774        0.92502
H         -0.90079        2.03828       -0.79335
H         -2.65429       -0.97186       -0.79334
H         -0.85645       -0.39498        2.11079
H         -1.48501       -1.75409        1.14228
H          1.10276       -2.12008        0.70757
H          0.15976       -1.04429       -1.85586
