19
dsC7O2H10nsd_5271.xyz
C          2.89391       -0.63051       -0.17147
C          1.73676       -0.31452        0.78495
C          0.46176        0.06688        0.06220
C          0.36376        1.43908       -0.63394
O         -0.92864        1.71026       -0.03879
C         -0.87203        0.50984        0.76423
C         -1.60466       -0.63465        0.02922
O         -2.72088       -1.05939        0.04824
C         -0.31310       -1.04549       -0.71251
H          3.79838       -0.89932        0.38174
H          2.64526       -1.46710       -0.83291
H          3.13521        0.23150       -0.80306
H          1.54235       -1.18431        1.42598
H          2.02761        0.50270        1.45706
H          1.10956        2.17151       -0.29752
H          0.32542        1.44175       -1.72952
H         -1.03571        0.68943        1.83067
H         -0.00983       -2.06273       -0.44063
H         -0.34052       -0.97425       -1.80345
