19
dsC7O2H10nsd_5659.xyz
C         -2.79265       -0.51450       -0.30940
O         -1.62005        0.20836       -0.61532
C         -0.82722        0.55613        0.51526
C          0.02190       -0.63124        1.01574
C          1.17093       -0.93250        0.07151
O          1.39023       -2.03410       -0.37071
C          2.05465        0.26548       -0.25826
C          1.32194        1.58022       -0.23856
C          0.04255        1.71544        0.10229
H         -3.43308        0.03433        0.39879
H         -3.33751       -0.64847       -1.24683
H         -2.58129       -1.50704        0.11345
H         -1.49627        0.87346        1.33198
H          0.44688       -0.35444        1.99028
H         -0.57641       -1.53452        1.15179
H          2.87761        0.28225        0.47406
H          2.53022        0.08510       -1.22854
H          1.89437        2.45350       -0.54275
H         -0.43854        2.68762        0.05463
