19
dsC7O2H10nsd_2279.xyz
C          2.36342        0.16664       -0.29483
C          0.87284        0.13598       -0.01103
C          0.45219       -0.90889        1.07405
O         -0.66550       -1.59473        0.50850
C         -1.03559       -0.80449       -0.61708
O          0.18831       -0.37577       -1.16801
C         -1.85765        0.39319       -0.17652
C         -1.22343        1.48142        0.25462
C          0.28562        1.52747        0.29976
H          2.91532        0.51145        0.58568
H          2.71961       -0.83198       -0.56162
H          2.58367        0.84564       -1.12355
H          1.24232       -1.64179        1.26564
H          0.17830       -0.42610        2.01988
H         -1.54897       -1.44595       -1.33648
H         -2.93948        0.31420       -0.19241
H         -1.76974        2.36257        0.58039
H          0.66481        2.26378       -0.42270
H          0.62735        1.86420        1.28740
