19
dsC7O2H10nsd_5946.xyz
C          3.45817       -0.13252       -0.10391
C          2.05468        0.44282       -0.13407
O          1.12974       -0.62678        0.09448
C         -0.16905       -0.23704        0.11711
C         -1.37293       -0.89789        0.74623
C         -2.15175       -0.88399       -0.56657
C         -1.23427        0.30138       -0.96172
O         -1.62374        1.36230       -0.05138
C         -1.03154        0.60700        0.99884
H          3.66459       -0.59344        0.86617
H          3.57943       -0.89483       -0.87863
H          4.19433        0.65812       -0.27663
H          1.92040        1.21078        0.64022
H          1.84148        0.91086       -1.10571
H         -1.39246       -1.61634        1.55547
H         -1.94423       -1.77547       -1.16370
H         -3.22440       -0.66907       -0.54794
H         -1.09527        0.63616       -1.98742
H         -0.91171        1.05054        1.97795
