19
dsC7O2H10nsd_4328.xyz
O         -2.26354       -1.33485       -0.51082
C         -1.35929       -0.68585        0.37144
C         -1.88462        0.70634        0.80215
C         -1.17479        1.64440       -0.14549
C         -0.15875        1.04570       -0.76820
C          0.00164       -0.39624       -0.33141
C          1.22708       -0.60221        0.59291
C          2.52642       -0.42755       -0.15873
O          3.38750        0.36811        0.11395
H         -2.41387       -0.74189       -1.25643
H         -1.24659       -1.37236        1.21451
H         -2.97702        0.73580        0.72880
H         -1.63330        0.93739        1.84624
H         -1.45679        2.68441       -0.26674
H          0.51536        1.52465       -1.46994
H          0.09817       -1.08488       -1.18078
H          1.21298        0.08920        1.44012
H          1.20575       -1.63259        0.97615
H          2.63748       -1.11347       -1.03290
