19
dsC7O2H10nsd_0609.xyz
C          2.40373        0.08703       -0.09043
C          1.55395       -1.21803        0.01654
C          0.16062       -0.66765       -0.25648
O         -0.93663       -1.37647        0.26462
C         -2.15557       -0.71953       -0.08354
C         -2.09048        0.79223       -0.12752
C         -0.96949        1.49164        0.05690
C          0.26556        0.71354        0.38161
O          1.49258        1.20616       -0.12480
H          3.08510        0.18761        0.76421
H          2.99992        0.12396       -1.00685
H          1.87392       -1.98482       -0.69163
H          1.59552       -1.64201        1.02424
H          0.03499       -0.51728       -1.34136
H         -2.50733       -1.08331       -1.06594
H         -2.89833       -1.04480        0.65477
H         -3.03525        1.28646       -0.34008
H         -0.94389        2.57605        0.02323
H          0.33781        0.58511        1.47835
