19
dsC7O2H10nsd_1139.xyz
C          2.01653        1.47873        0.24021
C          1.57608        0.05656       -0.04117
O          2.24743       -0.72045       -0.68351
C          0.21089       -0.33464        0.49500
C         -0.13857       -1.83939        0.59798
C         -1.52573       -1.55903       -0.03982
C         -0.96600       -0.18058       -0.52126
C         -1.85739        1.02031       -0.40559
O         -1.62318        1.98529        0.28035
H          2.30972        1.55744        1.29480
H          2.86769        1.74676       -0.38694
H          1.18454        2.17553        0.09685
H         -0.02581        0.23094        1.40020
H          0.51201       -2.41593       -0.06306
H         -0.12913       -2.28301        1.59510
H         -1.88006       -2.24544       -0.81081
H         -2.31174       -1.43533        0.71073
H         -0.62052       -0.26172       -1.55952
H         -2.79555        0.96025       -1.00423
