19
dsC7O2H10nsd_1722.xyz
C         -1.13944        1.24344        1.28096
C         -0.46635        0.20148        0.37242
C          0.08209       -1.05772        1.05929
C          1.28775       -1.49120        0.19513
C          1.92752       -0.17024       -0.25814
C          0.76988        0.82161       -0.33508
O          0.77859        1.90843       -0.85281
C         -1.44829       -0.14772       -0.74992
O         -1.78902       -1.26266       -1.04635
H         -0.45926        1.54128        2.08422
H         -1.39538        2.13929        0.70882
H         -2.04972        0.84147        1.73631
H          0.41128       -0.80611        2.07386
H         -0.67524       -1.84082        1.13087
H          1.98189       -2.13490        0.73970
H          0.92829       -2.05284       -0.67237
H          2.62664        0.21341        0.49757
H          2.47270       -0.20778       -1.20437
H         -1.83679        0.74304       -1.28935
