19
dsC7O2H10nsd_5356.xyz
O         -2.60862        0.07365        0.66497
C         -1.97585       -0.81295       -0.24908
C         -0.48668       -0.62834       -0.29232
C          0.47264       -1.50537        0.01487
C          1.83814       -0.90175       -0.07030
C          2.08339        0.21610        0.92417
C          1.61077        0.53567       -0.47914
C          0.11279        0.71420       -0.70900
O         -0.47207        1.83649       -0.02766
H         -2.25056        0.95151        0.47242
H         -2.22409       -1.83050        0.06988
H         -2.38801       -0.68164       -1.26582
H          0.30281       -2.52723        0.33798
H          2.67793       -1.48055       -0.43671
H          1.39794        0.29458        1.76316
H          3.10996        0.48005        1.15576
H          2.30170        1.05299       -1.13289
H         -0.09646        0.91850       -1.76698
H         -0.11684        1.83575        0.86951
