19
dsC7O2H10nsd_3096.xyz
C         -2.07140        1.49768       -0.00011
C         -1.75267        0.01177       -0.00001
C         -0.66327       -0.64168        0.89797
O         -0.69849       -1.82525        0.00001
C         -0.66330       -0.64195       -0.89789
C          0.46409       -0.08580        0.00003
C          1.88154       -0.66697        0.00004
O          2.45455        0.66250       -0.00023
C          1.15923        1.28798        0.00011
H         -2.66716        1.75676       -0.88186
H         -2.66716        1.75683        0.88165
H         -1.18646        2.13658       -0.00008
H         -2.66155       -0.59609        0.00007
H         -0.66046       -0.82824        1.97340
H         -0.66041       -0.82844       -1.97333
H          2.16448       -1.23769        0.89266
H          2.16445       -1.23805       -0.89234
H          1.00032        1.90682        0.89324
H          1.00011        1.90739       -0.89257
