19
dsC7O2H10nsd_5552.xyz
C         -2.03768       -1.58190        0.20938
O         -0.84029       -1.32546       -0.50415
C          0.19369       -0.81605        0.29421
C          1.51273       -0.74816       -0.46948
C          2.55692       -0.11214        0.40347
C          1.56661        0.76997       -0.29965
C          0.21991        0.77153        0.44503
C         -0.88614        1.41795       -0.35082
O         -1.78560        2.05815        0.13448
H         -2.47783       -0.66402        0.62086
H         -2.74107       -2.02502       -0.49878
H         -1.86300       -2.28989        1.03310
H          0.23233       -1.35367        1.25486
H          1.74891       -1.36686       -1.32560
H          2.52221       -0.23120        1.48435
H          3.56036       -0.10130       -0.00920
H          1.87774        1.52794       -1.00893
H          0.20911        1.17040        1.46331
H         -0.81793        1.26499       -1.44946
