19
dsC7O2H10nsd_4968.xyz
C          2.55331        0.20237       -0.21261
O          1.68587       -0.90511       -0.03119
C          0.37011       -0.56781        0.06829
C         -0.74766       -1.34197        0.68173
C         -1.59520       -1.26890       -0.58974
C         -0.73772       -0.03208       -0.96741
C         -1.12492        1.02935        0.10472
O         -0.50955        2.28971       -0.04537
C         -0.46506        0.12021        1.13712
H          2.50063        0.89261        0.64186
H          3.56770       -0.19415       -0.28839
H          2.31590        0.75229       -1.13414
H         -0.66488       -2.14901        1.39881
H         -1.40646       -2.12471       -1.24319
H         -2.67539       -1.10926       -0.49509
H         -0.59059        0.27755       -2.00013
H         -2.19612        1.23339        0.20517
H          0.44348        2.16106        0.02491
H         -0.22197        0.33644        2.17016
