19
dsC7O2H10nsd_5915.xyz
C          3.70112        0.13924       -0.41036
C          2.44098       -0.37856        0.28749
C          1.17044        0.32740       -0.19520
C         -0.09874       -0.20521        0.47112
O         -0.27619       -1.55178        0.08164
C         -1.30939        0.68112        0.13157
O         -1.25987        1.89013        0.15533
C         -2.54691       -0.02453       -0.17666
C         -3.58308       -0.59828       -0.39690
H          3.83995        1.21231       -0.23742
H          4.59585       -0.37559       -0.04693
H          3.64551       -0.01567       -1.49357
H          2.33606       -1.45565        0.12049
H          2.53837       -0.24180        1.37296
H          1.22448        1.40266        0.00126
H          1.06139        0.20190       -1.27994
H          0.01731       -0.12259        1.56825
H         -1.11251       -1.87237        0.43682
H         -4.50456       -1.08713       -0.60396
