19
dsC7O2H10nsd_3796.xyz
C          3.30376       -0.40774        0.47337
C          2.06709       -0.19745       -0.36074
O          1.56786        1.14112       -0.44814
C          0.76590        0.16628        0.22366
C         -0.53897       -0.20825       -0.42241
C         -1.26144       -1.52891        0.00574
C         -2.62219       -0.77476        0.09030
C         -1.82450        0.53762        0.01211
O         -2.05893        1.67171        0.30701
H          4.19231       -0.05576       -0.06100
H          3.23327        0.14132        1.41616
H          3.44369       -1.47132        0.69491
H          2.04948       -0.73125       -1.31349
H          0.72311        0.30172        1.30643
H         -0.43338       -0.14658       -1.51167
H         -1.20318       -2.35573       -0.70243
H         -0.92430       -1.87835        0.98508
H         -3.24846       -0.91583       -0.79673
H         -3.24179       -0.91170        0.97952
