19
dsC7O2H10nsd_3609.xyz
C         -2.39943       -0.15306       -0.45688
C         -1.13537       -0.73718        0.14811
C         -0.13108       -1.51841       -0.74188
C          1.02148       -0.93651        0.09394
O          2.18102       -0.62789       -0.62242
C          0.04934        0.20491        0.58492
O          0.12416        0.59277        1.94363
C          0.16777        1.40813       -0.22407
C          0.27873        2.38537       -0.91428
H         -2.93449        0.46512        0.27166
H         -2.16539        0.47432       -1.32146
H         -3.07625       -0.94947       -0.78449
H         -1.39067       -1.34373        1.02723
H         -0.22581       -2.60392       -0.79364
H         -0.09426       -1.10701       -1.75414
H          1.23873       -1.57543        0.96722
H          2.73090       -0.05290       -0.07900
H         -0.00898       -0.19981        2.47505
H          0.37608        3.25423       -1.51737
