19
dsC7O2H10nsd_0514.xyz
C          2.05191       -0.58835       -0.11288
C          1.82941        0.93659        0.19843
C          0.31082        0.67365        0.11627
C         -0.88390        1.37437       -0.51351
O         -1.88273        0.31525       -0.41813
C         -1.32502       -0.71990        0.39232
C         -0.39842        0.03541        1.33815
O         -0.41642       -1.53693       -0.35694
C          0.60682       -0.59988       -0.69556
H          2.86193       -0.84510       -0.79762
H          2.14690       -1.19040        0.79229
H          2.22200        1.32892        1.13845
H          2.18628        1.56614       -0.62153
H         -1.23680        2.26594        0.02167
H         -0.73779        1.62273       -1.57016
H         -2.13173       -1.34809        0.76443
H         -0.90700        0.76775        1.96988
H          0.22148       -0.62488        1.94361
H          0.61814       -0.44087       -1.77974
