19
dsC7O2H10nsd_3278.xyz
C         -1.61665       -1.79794        0.32488
C         -0.99065       -0.49463       -0.09057
O         -1.85699        0.44693       -0.75670
C         -1.28993        0.82105        0.50482
C         -0.10816        1.77521        0.37687
C          0.96148        0.94905       -0.34043
C          1.51590       -0.25259        0.37845
O          2.81028       -0.72145        0.14154
C          0.41256       -0.44693       -0.63138
H         -1.72182       -2.46545       -0.53743
H         -0.99335       -2.30747        1.06682
H         -2.61023       -1.63288        0.74864
H         -2.00508        0.93956        1.31632
H         -0.39592        2.65742       -0.20474
H          0.22429        2.12334        1.36237
H          1.60580        1.43821       -1.06408
H          1.27879       -0.37554        1.43209
H          3.04311       -0.53798       -0.77420
H          0.64078       -0.96238       -1.56029
