19
dsC7O2H10nsd_0637.xyz
C          1.64346        0.67055        0.45476
O          1.96739       -0.48608       -0.26506
C          0.85146       -1.25958       -0.69988
C         -0.06839       -1.71324        0.40412
C         -1.33761       -1.31449        0.55097
C         -2.02425       -0.30890       -0.27798
C         -1.67192        0.97476       -0.41108
C         -0.56025        1.66290        0.34939
O          0.74405        1.51364       -0.22145
H          1.23455        0.41834        1.44658
H          2.59670        1.19725        0.57140
H          0.28504       -0.70328       -1.45284
H          1.29932       -2.13485       -1.18257
H          0.33154       -2.45796        1.08941
H         -1.94857       -1.79807        1.31392
H         -2.91471       -0.65646       -0.80265
H         -2.25871        1.60316       -1.07665
H         -0.76412        2.73890        0.37861
H         -0.54755        1.30046        1.38509
