19
dsC7O2H10nsd_2319.xyz
C          0.64493        1.95759        0.08563
C          0.44637        0.52672       -0.34406
O          1.74100       -0.14678       -0.52794
C          1.52525       -0.94061        0.68040
C          0.02956       -0.68975        0.54603
C         -0.55401       -1.33927       -0.77133
C         -0.86450        0.12024       -1.06906
O         -1.80829        0.44482        0.00690
C         -1.23081       -0.18413        1.20581
H          1.21695        2.02577        1.01734
H          1.21843        2.48301       -0.68610
H         -0.31306        2.46406        0.21872
H          1.87888       -1.96948        0.56451
H          2.00679       -0.47394        1.54917
H          0.22133       -1.77670       -1.39583
H         -1.41448       -2.00147       -0.66156
H         -1.26902        0.52870       -1.99578
H         -1.06751        0.57713        1.97516
H         -1.92082       -0.94620        1.58217
