19
dsC7O2H10nsd_3534.xyz
O          1.01330       -1.74072       -0.78365
C          1.10140       -1.03483        0.43685
C          2.17565        0.09594        0.40747
C          1.03570        1.06840        0.04601
O          0.99437        2.15106       -0.45771
C         -0.03505        0.03977        0.47582
C         -1.28472       -0.14037       -0.33542
C         -2.53251       -0.71590        0.29239
C         -2.47946        0.74381       -0.07800
H          1.81708       -2.25888       -0.89102
H          1.14206       -1.71548        1.29504
H          2.60102        0.32141        1.39117
H          2.98374       -0.00671       -0.32110
H         -0.28451        0.25064        1.52496
H         -1.10052       -0.41347       -1.36799
H         -3.14332       -1.38094       -0.30765
H         -2.49977       -0.97544        1.34571
H         -3.05337        1.08366       -0.93246
H         -2.40985        1.47154        0.72343
