19
dsC7O2H10nsd_3644.xyz
C         -2.81043       -1.20172       -0.28293
C         -1.75388       -0.38773        0.46457
O         -0.44323       -0.72400       -0.01749
C          0.24969        0.43972       -0.47270
C          1.56050        0.62343        0.32318
C          2.48174       -0.57026        0.18664
O          3.62871       -0.50549       -0.17774
C         -0.73228        1.56502       -0.28393
C         -1.84995        1.10112        0.26050
H         -2.60965       -2.27058       -0.16936
H         -3.80886       -0.99516        0.11683
H         -2.80124       -0.95539       -1.34858
H         -1.80739       -0.64297        1.53581
H          0.50752        0.30600       -1.53577
H          2.09493        1.51882       -0.00856
H          1.29868        0.73831        1.38335
H          2.01262       -1.54159        0.45110
H         -0.51113        2.58874       -0.55783
H         -2.73163        1.67225        0.52296
