19
dsC7O2H10nsd_4068.xyz
O          2.57304        0.74033        0.49691
C          1.41090        0.40603       -0.23807
C          1.32910       -1.07944       -0.70364
C          0.09596       -1.31222        0.20541
C         -1.23319       -0.95426       -0.44734
C         -2.19378       -0.43885        0.60196
C         -1.12499        0.47700        0.07302
O         -1.41803        1.63472       -0.62986
C          0.22057        0.18433        0.72278
H          3.30856        0.79491       -0.12199
H          1.21051        1.15183       -1.01771
H          1.18207       -1.26317       -1.77205
H          2.20886       -1.63074       -0.36167
H          0.11350       -2.17942        0.86876
H         -1.57949       -1.30309       -1.41368
H         -3.18649       -0.21110        0.22648
H         -2.16730       -0.82391        1.61938
H         -1.75479        2.28973       -0.00821
H          0.39713        0.47893        1.75951
