19

C	4.260453	-0.018039	-0.225708
C	2.84922	-0.229486	0.061921
C	1.682707	-0.396033	0.306522
C	0.266869	-0.597418	0.581012
C	-0.642681	0.268165	-0.333601
O	-0.397508	1.628461	-0.135275
C	-2.125841	-0.034661	-0.087175
C	-2.632008	-1.442168	-0.301199
O	-2.853119	0.868464	0.269616
H	4.588042	-0.613252	-1.085321
H	4.464097	1.033953	-0.45396
H	4.886901	-0.298433	0.628412
H	0.012388	-1.656995	0.451088
H	0.040692	-0.337001	1.623018
H	-0.423993	-0.010124	-1.378546
H	-1.250699	1.99969	0.145004
H	-2.166616	-1.909359	-1.173926
H	-2.380976	-2.058019	0.570569
H	-3.717129	-1.428015	-0.411704


19

C	4.260346	-0.017849	-0.225708
C	2.849124	-0.229455	0.061843
C	1.682617	-0.396142	0.306384
C	0.266759	-0.597569	0.580686
C	-0.642688	0.268513	-0.333596
O	-0.397787	1.628691	-0.134331
C	-2.125779	-0.03465	-0.087619
C	-2.631217	-1.442551	-0.30068
O	-2.853437	0.868346	0.268749
H	4.58819	-0.613463	-1.08495
H	4.463781	1.034066	-0.454513
H	4.886739	-0.297628	0.628656
H	0.012166	-1.657059	0.4502
H	0.040506	-0.337641	1.622803
H	-0.423748	-0.00907	-1.37869
H	-1.251125	1.999526	0.146005
H	-2.165633	-1.910087	-1.173132
H	-2.3797	-2.057679	0.571473
H	-3.716354	-1.429045	-0.411059


19

C	4.260388	-0.017869	-0.225845
C	2.849175	-0.229374	0.061808
C	1.68268	-0.39601	0.306446
C	0.266876	-0.597501	0.580918
C	-0.642731	0.26842	-0.333408
O	-0.397913	1.628627	-0.134422
C	-2.125722	-0.034769	-0.087227
C	-2.631259	-1.442532	-0.30087
O	-2.8535	0.868367	0.268574
H	4.588543	-0.61481	-1.084052
H	4.463578	1.033726	-0.45635
H	4.886708	-0.296067	0.62909
H	0.012299	-1.657015	0.450572
H	0.04069	-0.337439	1.623021
H	-0.423862	-0.009283	-1.378501
H	-1.251317	1.999444	0.145727
H	-2.165633	-1.909813	-1.17345
H	-2.379755	-2.057965	0.571081
H	-3.716386	-1.428919	-0.411279


19

C	4.260291	-0.017756	-0.225798
C	2.849095	-0.229355	0.061831
C	1.682611	-0.396098	0.306462
C	0.266827	-0.597603	0.580879
C	-0.642784	0.268477	-0.333425
O	-0.39803	1.628628	-0.13441
C	-2.12565	-0.034725	-0.087398
C	-2.631008	-1.442535	-0.300924
O	-2.853409	0.868303	0.268804
H	4.589579	-0.618043	-1.081241
H	4.462639	1.033045	-0.460659
H	4.88631	-0.291701	0.630733
H	0.01213	-1.657072	0.450343
H	0.040568	-0.337629	1.623
H	-0.423814	-0.009095	-1.378571
H	-1.251649	1.999437	0.145087
H	-2.166001	-1.909534	-1.174012
H	-2.378305	-2.058052	0.570652
H	-3.716235	-1.429229	-0.410241


19

C	4.260237	-0.017537	-0.225745
C	2.849062	-0.229401	0.061782
C	1.682588	-0.396353	0.306322
C	0.266821	-0.598036	0.580597
C	-0.642802	0.26845	-0.333375
O	-0.397746	1.628481	-0.134008
C	-2.125658	-0.034601	-0.087349
C	-2.631162	-1.442365	-0.30075
O	-2.853413	0.868589	0.268505
H	4.590773	-0.621091	-1.078407
H	4.461643	1.032477	-0.464908
H	4.885932	-0.28718	0.632386
H	0.012118	-1.657435	0.449541
H	0.040487	-0.338517	1.622817
H	-0.423937	-0.008941	-1.378611
H	-1.251337	1.999502	0.145311
H	-2.166582	-1.90927	-1.174123
H	-2.377899	-2.057989	0.570598
H	-3.716439	-1.429065	-0.409473


19

C	4.260445	-0.017576	-0.225616
C	2.849189	-0.229172	0.061665
C	1.682644	-0.395969	0.30597
C	0.267012	-0.598337	0.580206
C	-0.642979	0.268458	-0.333257
O	-0.397772	1.628345	-0.133396
C	-2.125736	-0.034632	-0.087245
C	-2.631269	-1.442407	-0.300305
O	-2.853656	0.868747	0.267929
H	4.595457	-0.634772	-1.066691
H	4.458977	1.028799	-0.482499
H	4.884607	-0.270015	0.638839
H	0.012576	-1.657687	0.448369
H	0.040591	-0.339551	1.622595
H	-0.424266	-0.008747	-1.378628
H	-1.251592	1.999649	0.144866
H	-2.168293	-1.908617	-1.174923
H	-2.37572	-2.058539	0.570036
H	-3.716751	-1.429441	-0.406737


19

C	4.260188	-0.017055	-0.225764
C	2.849079	-0.229429	0.061645
C	1.682621	-0.39677	0.305997
C	0.266979	-0.599103	0.580075
C	-0.642877	0.268244	-0.333076
O	-0.39708	1.627946	-0.132839
C	-2.125719	-0.034331	-0.087198
C	-2.631824	-1.441876	-0.300312
O	-2.853412	0.869402	0.267618
H	4.598589	-0.643464	-1.058633
H	4.455987	1.02671	-0.495081
H	4.883573	-0.256954	0.64281
H	0.01239	-1.658334	0.447659
H	0.040509	-0.340781	1.62257
H	-0.424301	-0.00888	-1.378528
H	-1.250939	1.999757	0.144639
H	-2.170078	-1.907627	-1.175839
H	-2.375056	-2.058627	0.569238
H	-3.717431	-1.428669	-0.405272


19

C	4.260159	-0.016872	-0.225902
C	2.849114	-0.229527	0.061615
C	1.682688	-0.397073	0.305966
C	0.26705	-0.599527	0.580015
C	-0.642791	0.268038	-0.332861
O	-0.396554	1.627651	-0.132391
C	-2.125834	-0.03417	-0.087141
C	-2.632432	-1.441542	-0.300217
O	-2.85336	0.869857	0.267274
H	4.604132	-0.659434	-1.044048
H	4.452049	1.021775	-0.516933
H	4.881818	-0.23513	0.649584
H	0.012554	-1.658732	0.447282
H	0.040604	-0.341534	1.622586
H	-0.424397	-0.009119	-1.378347
H	-1.250529	1.999961	0.144068
H	-2.172334	-1.906514	-1.177034
H	-2.374091	-2.059157	0.568225
H	-3.718215	-1.428144	-0.403296


19

C	4.260087	-0.016642	-0.226471
C	2.849237	-0.229839	0.061649
C	1.682908	-0.397688	0.306227
C	0.267185	-0.6	0.580348
C	-0.642439	0.267475	-0.332367
O	-0.395476	1.627075	-0.131743
C	-2.126139	-0.03389	-0.08709
C	-2.633887	-1.440877	-0.300245
O	-2.853155	0.870738	0.26667
H	4.618004	-0.69854	-1.005858
H	4.442559	1.006889	-0.571969
H	4.877002	-0.179677	0.664244
H	0.012926	-1.659258	0.447717
H	0.040939	-0.342081	1.622945
H	-0.424401	-0.010019	-1.377801
H	-1.249662	2.000373	0.142741
H	-2.177106	-1.904116	-1.179712
H	-2.372932	-2.060491	0.565875
H	-3.72	-1.426821	-0.399911


19

C	4.260203	-0.016627	-0.226535
C	2.849371	-0.230008	0.061598
C	1.68304	-0.397964	0.306063
C	0.267262	-0.600046	0.580424
C	-0.642274	0.267218	-0.332184
O	-0.394976	1.626874	-0.1316
C	-2.126396	-0.033775	-0.087039
C	-2.634638	-1.440623	-0.300171
O	-2.853149	0.871066	0.266546
H	4.628387	-0.725505	-0.9765
H	4.436506	0.994092	-0.610749
H	4.872927	-0.139483	0.673461
H	0.013132	-1.659376	0.448133
H	0.041299	-0.341978	1.623022
H	-0.424515	-0.01044	-1.377587
H	-1.249226	2.000557	0.142143
H	-2.179525	-1.902919	-1.180991
H	-2.372473	-2.061255	0.564773
H	-3.720918	-1.426266	-0.398209


19

C	4.26007	-0.017857	-0.227009
C	2.849168	-0.229323	0.062204
C	1.682859	-0.395906	0.307739
C	0.266958	-0.59809	0.581306
C	-0.642426	0.268008	-0.33282
O	-0.397074	1.62813	-0.133379
C	-2.125885	-0.034564	-0.087497
C	-2.632068	-1.442124	-0.300937
O	-2.853423	0.869055	0.267531
H	4.608849	-0.678906	-1.028203
H	4.448358	1.014117	-0.542991
H	4.880296	-0.211819	0.655182
H	0.012995	-1.657633	0.450114
H	0.040237	-0.338873	1.623488
H	-0.423598	-0.009724	-1.377939
H	-1.25094	1.999875	0.144146
H	-2.170136	-1.907462	-1.176545
H	-2.376498	-2.059389	0.568474
H	-3.717636	-1.428516	-0.40685


19

C	4.260472	-0.017908	-0.225751
C	2.849262	-0.229429	0.061941
C	1.682735	-0.396034	0.306431
C	0.266881	-0.597683	0.580677
C	-0.64269	0.26817	-0.333519
O	-0.397634	1.628436	-0.134618
C	-2.125892	-0.034631	-0.087277
C	-2.63185	-1.442279	-0.30081
O	-2.853207	0.868638	0.269025
H	4.607148	-0.670552	-1.034708
H	4.450972	1.017173	-0.530033
H	4.880819	-0.223457	0.653733
H	0.012586	-1.657237	0.450149
H	0.040627	-0.33791	1.622836
H	-0.424133	-0.009642	-1.37864
H	-1.251005	1.999635	0.145148
H	-2.16781	-1.908814	-1.174636
H	-2.378817	-2.05846	0.570135
H	-3.717165	-1.428559	-0.409389


19

C	4.264224	-0.008596	-0.194945
C	2.848648	-0.234176	0.055932
C	1.678397	-0.412362	0.273527
C	0.267997	-0.620688	0.555118
C	-0.651807	0.263818	-0.343818
O	-0.376392	1.615865	-0.150911
C	-2.128668	-0.023596	-0.08257
C	-2.6569	-1.42125	-0.297279
O	-2.840303	0.880537	0.309935
H	4.635491	-0.647484	-1.004295
H	4.453594	1.032009	-0.481812
H	4.866103	-0.220329	0.695845
H	0.006385	-1.674839	0.40346
H	0.043822	-0.375664	1.601772
H	-0.445418	-0.022739	-1.391494
H	-1.225829	2.013247	0.105257
H	-2.244043	-1.873416	-1.204211
H	-2.342264	-2.055501	0.542256
H	-3.745629	-1.405403	-0.334752


19

C	4.260248	-0.012467	-0.220286
C	2.849352	-0.238217	0.065214
C	1.684209	-0.41264	0.299683
C	0.257424	-0.617849	0.563038
C	-0.638567	0.251651	-0.336093
O	-0.380286	1.62127	-0.135261
C	-2.13524	-0.020057	-0.080839
C	-2.671662	-1.421125	-0.297265
O	-2.811528	0.888871	0.280816
H	4.618626	-0.660385	-1.026746
H	4.443216	1.024498	-0.517752
H	4.875038	-0.214748	0.663295
H	0.004624	-1.678746	0.420427
H	0.029968	-0.370979	1.604948
H	-0.428078	-0.035764	-1.373669
H	-1.231514	2.003563	0.119704
H	-2.256375	-1.877319	-1.200356
H	-2.391686	-2.060286	0.539519
H	-3.763886	-1.386731	-0.354523


19

C	4.262912	-0.008243	-0.217989
C	2.85243	-0.234584	0.066313
C	1.684485	-0.410401	0.301115
C	0.261344	-0.616621	0.564228
C	-0.63787	0.251493	-0.339224
O	-0.379883	1.616233	-0.141169
C	-2.133884	-0.024764	-0.082472
C	-2.660828	-1.428511	-0.298515
O	-2.836379	0.896166	0.286757
H	4.622036	-0.657572	-1.023365
H	4.44488	1.028801	-0.517695
H	4.878095	-0.208101	0.666215
H	0.01026	-1.677125	0.423605
H	0.033504	-0.36791	1.607044
H	-0.427682	-0.036391	-1.379348
H	-1.233264	1.998728	0.114893
H	-2.241895	-1.881413	-1.201693
H	-2.375483	-2.066306	0.541229
H	-3.751886	-1.402117	-0.356318


19

C	4.244839	-0.012253	-0.215882
C	2.835158	-0.233608	0.063814
C	1.675257	-0.407711	0.298172
C	0.268356	-0.614556	0.564649
C	-0.643493	0.270117	-0.343412
O	-0.377071	1.611503	-0.137481
C	-2.121179	-0.020175	-0.081131
C	-2.645322	-1.409726	-0.304353
O	-2.829476	0.858541	0.293678
H	4.598556	-0.658114	-1.028124
H	4.429488	1.028033	-0.51071
H	4.864008	-0.219523	0.665183
H	0.016942	-1.669748	0.417096
H	0.043548	-0.372527	1.61529
H	-0.442143	-0.004004	-1.400209
H	-1.23402	1.996337	0.13347
H	-2.22962	-1.847513	-1.2169
H	-2.34499	-2.055818	0.539008
H	-3.731085	-1.390016	-0.354818


19

C	4.257773	-0.009813	-0.214437
C	2.847163	-0.231045	0.064278
C	1.677637	-0.406626	0.299711
C	0.266886	-0.614858	0.565937
C	-0.644385	0.26462	-0.344564
O	-0.380554	1.613464	-0.142471
C	-2.124439	-0.026399	-0.0829
C	-2.64554	-1.422675	-0.30284
O	-2.846422	0.87569	0.295144
H	4.61313	-0.657957	-1.023759
H	4.442478	1.028957	-0.512638
H	4.875591	-0.213575	0.66796
H	0.01648	-1.67182	0.421388
H	0.039903	-0.369557	1.613961
H	-0.440913	-0.013396	-1.397627
H	-1.234887	1.998689	0.125362
H	-2.227491	-1.86434	-1.212519
H	-2.346417	-2.063834	0.540928
H	-3.732636	-1.405621	-0.355562


19

C	4.251513	-0.020673	-0.215391
C	2.836916	-0.235745	0.062776
C	1.69132	-0.403655	0.29342
C	0.262582	-0.614236	0.563495
C	-0.642825	0.25689	-0.339135
O	-0.384351	1.634156	-0.138211
C	-2.126639	-0.029043	-0.080377
C	-2.664492	-1.4341	-0.292906
O	-2.809777	0.888075	0.282016
H	4.60623	-0.670624	-1.021731
H	4.441944	1.013566	-0.516388
H	4.86533	-0.224322	0.667713
H	0.009603	-1.676267	0.419313
H	0.031062	-0.366659	1.60214
H	-0.43557	-0.026078	-1.376189
H	-1.22636	2.018788	0.124795
H	-2.25114	-1.89326	-1.195882
H	-2.380007	-2.065781	0.543147
H	-3.758319	-1.403833	-0.348648


19

C	4.269993	-0.01666	-0.214886
C	2.855887	-0.232304	0.062255
C	1.68445	-0.404049	0.297188
C	0.259453	-0.613456	0.565327
C	-0.645705	0.256911	-0.339688
O	-0.386626	1.626902	-0.140312
C	-2.131487	-0.029311	-0.081616
C	-2.661856	-1.434682	-0.295532
O	-2.831333	0.889549	0.283627
H	4.625574	-0.667393	-1.020546
H	4.46006	1.01794	-0.516788
H	4.883396	-0.219428	0.669105
H	0.006987	-1.674334	0.422127
H	0.027548	-0.364742	1.60526
H	-0.437499	-0.026614	-1.379059
H	-1.2333	2.01126	0.123102
H	-2.244375	-1.89054	-1.19823
H	-2.37506	-2.067325	0.543634
H	-3.754075	-1.409113	-0.353412


19

C	4.241127	-0.009391	-0.214222
C	2.831296	-0.230063	0.065401
C	1.682924	-0.401036	0.298168
C	0.274734	-0.608305	0.564924
C	-0.635644	0.264331	-0.341949
O	-0.375634	1.607045	-0.143378
C	-2.122642	-0.025181	-0.081157
C	-2.633095	-1.425069	-0.300836
O	-2.856396	0.874135	0.290741
H	4.596215	-0.659062	-1.022697
H	4.426759	1.02868	-0.515494
H	4.857962	-0.212671	0.669198
H	0.024605	-1.664643	0.421509
H	0.046631	-0.360716	1.612725
H	-0.428971	-0.016087	-1.393316
H	-1.236934	1.986938	0.127282
H	-2.207822	-1.866811	-1.206745
H	-2.335251	-2.065149	0.546489
H	-3.719152	-1.411634	-0.359831


19

C	4.263011	-0.010521	-0.215427
C	2.852041	-0.23015	0.063153
C	1.677719	-0.404254	0.30019
C	0.265965	-0.611616	0.566473
C	-0.642973	0.262905	-0.340724
O	-0.382472	1.612806	-0.140464
C	-2.128511	-0.025707	-0.081865
C	-2.645595	-1.425009	-0.301061
O	-2.850988	0.876128	0.287493
H	4.618189	-0.659663	-1.023922
H	4.449844	1.027086	-0.515749
H	4.879036	-0.214814	0.667916
H	0.014964	-1.668636	0.421978
H	0.036823	-0.364898	1.613151
H	-0.435617	-0.017215	-1.390769
H	-1.239142	1.994321	0.128793
H	-2.222189	-1.869715	-1.206496
H	-2.351388	-2.064507	0.544728
H	-3.732786	-1.407328	-0.360295


19

C	4.246354	-0.012905	-0.215841
C	2.834854	-0.232971	0.064069
C	1.686532	-0.403885	0.297126
C	0.269906	-0.613463	0.565532
C	-0.640402	0.261213	-0.340916
O	-0.381636	1.621792	-0.140014
C	-2.123342	-0.028822	-0.081558
C	-2.646952	-1.429941	-0.298137
O	-2.835267	0.881752	0.286894
H	4.601095	-0.661513	-1.024549
H	4.432594	1.024106	-0.516059
H	4.863199	-0.216948	0.666479
H	0.019065	-1.672371	0.420732
H	0.040861	-0.367552	1.610469
H	-0.433636	-0.01877	-1.38818
H	-1.231477	2.00399	0.128759
H	-2.226699	-1.878933	-1.203095
H	-2.355215	-2.066603	0.54472
H	-3.736264	-1.409107	-0.355965


19

C	4.266458	-0.012147	-0.216147
C	2.854491	-0.23126	0.062562
C	1.680183	-0.405194	0.299799
C	0.26346	-0.613851	0.566992
C	-0.645241	0.260915	-0.340172
O	-0.385716	1.619791	-0.139337
C	-2.128956	-0.028159	-0.082231
C	-2.652314	-1.429035	-0.299376
O	-2.842218	0.881956	0.285368
H	4.621493	-0.661079	-1.02439
H	4.453653	1.024639	-0.516419
H	4.882416	-0.216419	0.666674
H	0.012074	-1.67241	0.422153
H	0.033637	-0.36763	1.611626
H	-0.437666	-0.019169	-1.387127
H	-1.236646	2.002363	0.12904
H	-2.230945	-1.877995	-1.2038
H	-2.361615	-2.065805	0.544017
H	-3.741421	-1.408083	-0.358576


19

C	4.245701	-0.012821	-0.215817
C	2.834348	-0.23237	0.064153
C	1.685997	-0.402816	0.297409
C	0.270316	-0.611796	0.565647
C	-0.639428	0.262124	-0.340549
O	-0.380465	1.618709	-0.140219
C	-2.123327	-0.02795	-0.081413
C	-2.644546	-1.429237	-0.298317
O	-2.838996	0.880028	0.286297
H	4.600145	-0.661793	-1.024413
H	4.432178	1.024139	-0.516433
H	4.862562	-0.216866	0.666545
H	0.019255	-1.670268	0.421037
H	0.041327	-0.365594	1.610563
H	-0.432495	-0.017607	-1.387539
H	-1.232867	2.000336	0.129762
H	-2.222723	-1.877448	-1.202855
H	-2.352588	-2.065794	0.545289
H	-3.733466	-1.409814	-0.357263


19

C	4.26604	-0.012155	-0.216273
C	2.85417	-0.230946	0.062565
C	1.679865	-0.404573	0.30004
C	0.263703	-0.612907	0.567152
C	-0.644681	0.26149	-0.339827
O	-0.385202	1.618359	-0.139231
C	-2.12892	-0.027765	-0.082171
C	-2.650873	-1.428778	-0.299442
O	-2.844244	0.880913	0.28467
H	4.620812	-0.661261	-1.024526
H	4.453371	1.02461	-0.516759
H	4.882084	-0.216509	0.666502
H	0.012199	-1.671212	0.42233
H	0.033884	-0.366616	1.611813
H	-0.436882	-0.018362	-1.386694
H	-1.23735	2.000436	0.130061
H	-2.228403	-1.877403	-1.20348
H	-2.360241	-2.06542	0.544528
H	-3.73973	-1.408628	-0.359547


19

C	4.245749	-0.012893	-0.216148
C	2.83441	-0.232439	0.064054
C	1.686112	-0.402855	0.297589
C	0.270331	-0.611946	0.565889
C	-0.639521	0.262137	-0.340268
O	-0.380997	1.619676	-0.139731
C	-2.123284	-0.028326	-0.081503
C	-2.644518	-1.429767	-0.298207
O	-2.838687	0.880184	0.285517
H	4.600006	-0.661777	-1.024901
H	4.432194	1.024074	-0.516736
H	4.862795	-0.217088	0.666044
H	0.019317	-1.67047	0.421081
H	0.041278	-0.365969	1.610875
H	-0.432299	-0.01741	-1.38739
H	-1.232732	2.000995	0.130746
H	-2.222283	-1.878327	-1.202399
H	-2.353044	-2.066085	0.545687
H	-3.733441	-1.410287	-0.357731


19

C	4.26607	-0.012199	-0.216576
C	2.85422	-0.230955	0.062479
C	1.679961	-0.404522	0.300225
C	0.263742	-0.612913	0.567388
C	-0.644715	0.26157	-0.339543
O	-0.385622	1.618945	-0.138807
C	-2.128888	-0.028025	-0.082246
C	-2.650679	-1.429189	-0.299358
O	-2.844243	0.880922	0.283917
H	4.620655	-0.661255	-1.024956
H	4.45339	1.024561	-0.517067
H	4.882279	-0.216681	0.666049
H	0.012261	-1.671241	0.42241
H	0.033881	-0.366801	1.612099
H	-0.436659	-0.018084	-1.386479
H	-1.237424	2.000711	0.131046
H	-2.22772	-1.878076	-1.203047
H	-2.360478	-2.065583	0.544909
H	-3.739526	-1.409094	-0.360067


19

C	4.24574	-0.0129	-0.216404
C	2.834432	-0.232362	0.063996
C	1.686167	-0.402678	0.297772
C	0.270406	-0.611741	0.56611
C	-0.639466	0.262317	-0.339991
O	-0.381226	1.619698	-0.139411
C	-2.123268	-0.028407	-0.081557
C	-2.644082	-1.429992	-0.298161
O	-2.839144	0.879977	0.284831
H	4.599813	-0.661791	-1.025234
H	4.432204	1.024047	-0.517048
H	4.862919	-0.217181	0.665672
H	0.019378	-1.670241	0.421216
H	0.041353	-0.365868	1.611114
H	-0.432042	-0.017015	-1.387094
H	-1.233064	2.000696	0.131703
H	-2.221258	-1.878679	-1.202011
H	-2.352942	-2.066055	0.546044
H	-3.732971	-1.410734	-0.35831


19

C	4.266058	-0.012214	-0.216832
C	2.854237	-0.230894	0.062418
C	1.680014	-0.404369	0.300406
C	0.26381	-0.612742	0.567608
C	-0.644672	0.261735	-0.339274
O	-0.385862	1.619049	-0.138479
C	-2.128868	-0.028127	-0.082307
C	-2.650283	-1.429433	-0.299309
O	-2.844627	0.880746	0.28324
H	4.620464	-0.661271	-1.025292
H	4.453393	1.024529	-0.517372
H	4.8824	-0.216782	0.665678
H	0.01232	-1.671051	0.42254
H	0.033947	-0.366738	1.61234
H	-0.43641	-0.017709	-1.386206
H	-1.237692	2.000498	0.131982
H	-2.226763	-1.878465	-1.202663
H	-2.360418	-2.065576	0.545265
H	-3.739097	-1.409536	-0.360624


