19

C	-3.402598	0.02283	-0.29563
O	-2.176654	-0.318676	0.307265
C	-1.091943	0.431624	-0.195665
C	0.177152	-0.021486	0.513578
C	0.601547	-1.4765	0.228753
C	2.026505	-1.361403	-0.249875
C	2.458874	-0.096947	-0.327019
C	1.386567	0.835477	0.084175
O	1.420178	2.045373	0.080938
H	-3.388523	-0.158899	-1.382178
H	-4.175624	-0.603004	0.156897
H	-3.65857	1.080942	-0.129837
H	-0.994298	0.281848	-1.285944
H	-1.238604	1.509012	-0.025395
H	0.026896	0.133389	1.588146
H	0.528845	-2.120471	1.112401
H	-0.033269	-1.946251	-0.532875
H	2.615041	-2.2367	-0.5057
H	3.433297	0.244983	-0.651045
