19

C	0.01899	1.907376	-0.31214
C	1.107732	0.967175	0.280838
C	1.649506	-0.130813	-0.661331
O	1.170621	-1.383132	-0.173699
C	-0.012118	-1.211015	0.576278
O	-1.198545	-1.359768	-0.172844
C	-1.651258	-0.098306	-0.661897
C	-1.088264	0.988782	0.280495
C	0.002303	0.235906	1.0922
H	0.028634	2.895755	0.153017
H	0.020448	2.035823	-1.399648
H	1.904434	1.455127	0.843496
H	1.314774	0.031912	-1.696236
H	2.742516	-0.181271	-0.669568
H	-0.019782	-2.007535	1.323734
H	-1.311686	0.057007	-1.69635
H	-2.745037	-0.126537	-0.671622
H	-1.875368	1.492337	0.842914
H	0.003102	0.335954	2.175942
