19

C	-1.353771	1.383148	-0.859671
C	-0.282814	0.722324	-0.017461
C	1.120371	1.346913	-0.103551
C	2.03795	0.146908	-0.090931
C	1.386902	-1.015058	-0.115902
C	-0.103581	-0.835944	-0.124156
O	-0.684006	-1.579503	-1.162824
C	-0.777655	-0.863208	1.268921
O	-0.699402	0.568617	1.372238
H	-1.484393	2.428007	-0.559828
H	-1.081134	1.358161	-1.919374
H	-2.320074	0.882073	-0.739546
H	1.262745	1.958758	-1.004286
H	1.278086	2.005239	0.758742
H	3.117895	0.247155	-0.063868
H	1.838131	-2.000623	-0.121834
H	-1.641782	-1.50728	-1.09158
H	-1.819484	-1.22198	1.241993
H	-0.247143	-1.372917	2.080786
