19

C	-2.797756	-0.614965	0.074292
C	-1.538576	0.128258	0.460573
C	-0.722322	0.877771	-0.565233
O	-0.239325	2.135762	-0.187882
C	-0.17051	-0.379739	0.073919
O	-0.154112	-1.549557	-0.692566
C	0.992798	-0.250933	1.050808
C	2.264635	-0.209343	0.330437
C	3.271092	-0.18221	-0.328655
H	-3.051638	-1.372726	0.822866
H	-3.644154	0.074947	-0.008156
H	-2.671825	-1.127124	-0.881766
H	-1.570076	0.62493	1.427572
H	-1.038852	0.781344	-1.604773
H	0.627154	2.253564	-0.593841
H	0.664118	-1.543616	-1.205341
H	0.873185	0.661722	1.642503
H	0.98268	-1.100663	1.74383
H	4.180737	-0.155053	-0.876155
