19

C	-0.395342	2.230881	-0.185577
C	-1.100222	0.885263	-0.162732
O	-1.006629	0.237524	1.137785
C	-0.593729	-1.095355	0.78812
C	-1.419779	-1.43027	-0.47338
C	-0.561912	-0.253879	-1.042556
C	0.612231	-0.852901	-0.16082
C	1.788722	-0.055642	0.331992
O	2.874392	-0.071439	-0.197158
H	-0.629194	2.756081	-1.117525
H	-0.748273	2.846365	0.647316
H	0.690782	2.146705	-0.108472
H	-2.163567	1.051176	-0.38583
H	-0.55023	-1.713666	1.683215
H	-1.17309	-2.398265	-0.910613
H	-2.501438	-1.288871	-0.414315
H	-0.436723	-0.066931	-2.107725
H	0.982465	-1.763551	-0.636393
H	1.607351	0.533695	1.255034
