19

C	-2.480119	-0.500197	-0.233049
C	-1.037124	-0.141228	0.033538
C	-0.705004	1.043051	0.984415
C	0.356414	1.333594	-0.097526
O	-0.434489	0.615592	-1.067462
C	1.605947	0.516072	0.232947
O	1.99747	-0.453992	-0.729223
C	1.325931	-0.910406	0.452902
C	-0.126984	-1.353428	0.308322
H	-2.553603	-1.195094	-1.076173
H	-2.926785	-0.979876	0.6445
H	-3.058691	0.395366	-0.474897
H	-1.506332	1.783827	0.995537
H	-0.366999	0.825577	2.000755
H	0.565588	2.360776	-0.405955
H	2.414071	1.021913	0.760589
H	1.95792	-1.496985	1.117834
H	-0.220722	-2.077594	-0.50912
H	-0.442665	-1.855459	1.231115
