19

C	-0.026476	1.911429	-0.333522
C	0.279198	0.629668	0.462183
C	1.673774	0.076526	0.106198
O	2.700099	0.702889	0.141645
C	1.528675	-1.391777	-0.325059
C	0.050423	-1.630642	-0.209038
C	-0.628839	-0.55897	0.216956
C	-2.106536	-0.524922	0.475388
O	-2.801915	0.430041	-0.323875
H	-0.045135	1.706778	-1.409372
H	-0.997897	2.321124	-0.053497
H	0.755338	2.651379	-0.142869
H	0.285604	0.892184	1.531169
H	1.927985	-1.529158	-1.338212
H	2.131373	-2.037839	0.326942
H	-0.405356	-2.591657	-0.425651
H	-2.52569	-1.534393	0.345698
H	-2.303365	-0.221075	1.510841
H	-2.629643	0.211344	-1.245834
