19

O	2.906291	-0.508434	0.065958
C	2.104469	0.387627	0.105325
C	0.709291	0.303591	-0.503283
O	-0.000117	1.431777	-0.014371
C	-1.421885	1.308985	0.006806
C	-1.865688	-0.13438	0.266033
C	-0.794643	-0.828879	1.155903
C	-0.001564	-1.017063	-0.1705
C	-1.369996	-1.031322	-0.900203
H	2.322946	1.365967	0.586645
H	0.839955	0.370915	-1.599923
H	-1.759321	1.976477	0.807212
H	-1.851311	1.672015	-0.940797
H	-2.918865	-0.172671	0.553852
H	-0.335419	-0.246731	1.95837
H	-1.149396	-1.784602	1.547216
H	0.689016	-1.853204	-0.284915
H	-1.415114	-0.624515	-1.91624
H	-1.831785	-2.021753	-0.884605
