19

C	3.430486	-0.119313	0.225774
O	2.156434	-0.482931	-0.252317
C	1.174733	0.497533	0.008775
C	-0.152634	0.002167	-0.539766
C	-0.816963	-1.148866	0.235959
C	-2.160307	-1.416336	-0.329892
C	-2.018832	-0.241944	0.634937
C	-1.332116	0.895161	-0.049388
O	-1.480564	2.085708	-0.036415
H	3.430681	0.028549	1.317444
H	4.116592	-0.933172	-0.020649
H	3.794111	0.807851	-0.244401
H	1.096647	0.685069	1.093955
H	1.435364	1.456235	-0.466841
H	-0.067737	-0.159732	-1.619363
H	-0.287523	-1.838073	0.879224
H	-2.359953	-1.235267	-1.382697
H	-2.71023	-2.253142	0.088337
H	-2.601122	-0.190946	1.546444
