19

C	-4.254336	0.766243	-0.172691
C	-3.269116	0.119956	0.05814
C	-2.093501	-0.687246	0.356022
O	-0.935947	-0.073979	-0.176831
C	0.240159	-0.807817	0.092866
C	1.401467	-0.064248	-0.541109
C	1.903255	1.214307	0.161668
C	3.218756	0.427898	0.333548
O	2.649337	-0.747039	-0.288293
H	-5.122189	1.341864	-0.380685
H	-1.99605	-0.811161	1.448366
H	-2.220995	-1.699457	-0.064629
H	0.406689	-0.907691	1.178723
H	0.182505	-1.825868	-0.32753
H	1.213009	0.051463	-1.616261
H	1.959073	2.10625	-0.462616
H	1.376975	1.457028	1.086607
H	4.074732	0.811879	-0.234739
H	3.539021	0.22927	1.363088
