19

C	4.394239	0.218325	0.188117
O	3.027343	0.474818	-0.030506
C	2.248547	-0.706153	0.041901
C	0.84407	-0.405454	-0.1902
C	-0.325311	-0.184133	-0.378928
C	-1.71281	0.086429	-0.604744
C	-2.390408	1.280359	0.074027
C	-2.728332	-0.117483	0.496503
O	-3.936101	-0.687396	0.092563
H	4.80853	-0.472378	-0.564123
H	4.918525	1.173888	0.116404
H	4.577224	-0.21423	1.185244
H	2.600188	-1.441423	-0.703608
H	2.372691	-1.183266	1.03048
H	-2.093328	-0.146695	-1.594798
H	-1.784885	1.8929	0.731367
H	-3.12545	1.810471	-0.521042
H	-2.341389	-0.464778	1.453386
H	-4.642009	-0.285211	0.610183
