19

C	-3.511023	-0.217442	-0.149688
O	-2.142453	-0.155979	-0.473695
C	-1.370469	0.482248	0.528914
C	0.070092	0.395328	0.145441
C	0.969371	1.383386	0.100792
C	2.34619	0.900923	-0.309301
C	2.149795	-0.605071	-0.454077
O	1.771993	-1.266532	0.754402
C	0.733635	-0.906073	-0.190006
H	-3.950285	0.786485	-0.036785
H	-4.017764	-0.733644	-0.968552
H	-3.685355	-0.773666	0.785222
H	-1.678156	1.533492	0.652101
H	-1.536552	-0.020488	1.499241
H	0.768742	2.41743	0.361308
H	2.669961	1.352515	-1.256016
H	3.113235	1.140302	0.437238
H	2.769973	-1.186198	-1.1312
H	0.184333	-1.73593	-0.620664
