19

C	3.007952	-0.843333	0.429155
C	2.00635	-0.056427	-0.406369
C	0.674885	-0.827722	-0.735729
C	-0.089527	0.224154	0.088443
C	-1.385525	0.081405	0.830907
C	-2.576554	0.029419	-0.113191
O	-3.440411	-0.807027	-0.072092
O	0.186704	1.498416	-0.521631
C	1.156268	0.95519	0.383682
H	3.431766	-1.671621	-0.147524
H	3.835713	-0.206506	0.759741
H	2.53535	-1.266713	1.323015
H	2.49217	0.393692	-1.276998
H	0.383545	-0.897252	-1.7864
H	0.656542	-1.823376	-0.283987
H	-1.395161	-0.815525	1.456848
H	-1.514132	0.963072	1.473116
H	-2.596412	0.849508	-0.864338
H	1.437185	1.567492	1.234928
