19

O	2.824997	-0.907444	0.141807
C	1.780227	-0.340852	-0.032871
C	1.500591	1.144368	0.216128
O	0.173667	1.372017	-0.214646
C	-0.558087	0.145927	-0.150344
C	-1.362443	-0.130599	1.158825
C	-2.564832	-0.552172	0.270828
C	-1.890207	0.177386	-0.924124
C	0.461761	-0.932044	-0.529822
H	1.636711	1.358934	1.28844
H	2.18882	1.782869	-0.346879
H	-0.961307	-0.860265	1.867291
H	-1.55428	0.810443	1.68069
H	-2.609898	-1.634049	0.121639
H	-3.553182	-0.202997	0.573501
H	-1.912509	-0.298254	-1.907831
H	-2.236231	1.210079	-1.017803
H	0.280764	-1.92183	-0.10731
H	0.529751	-1.033593	-1.620736
