19

C	-2.698148	-8e-06	0.131578
C	-1.310595	1.3e-05	-0.499485
C	-0.32764	-1.050937	0.081901
O	0.812816	-1.163172	-0.789734
C	1.580121	-5e-06	-0.504869
C	1.669295	7e-06	1.025582
C	0.154257	1.3e-05	1.148273
C	-0.327642	1.050943	0.081896
O	0.812814	1.163149	-0.78976
H	-3.265446	0.885198	-0.17502
H	-3.265962	-0.884436	-0.176287
H	-2.655451	-0.000807	1.226213
H	-1.367707	1.7e-05	-1.591033
H	-0.674093	-2.049667	0.355399
H	2.482597	-1.2e-05	-1.112636
H	2.147855	-0.898807	1.419559
H	2.147856	0.898828	1.419542
H	-0.3185	2.2e-05	2.125573
H	-0.674073	2.049686	0.355383
