19

O	2.073766	-0.960663	-0.668085
C	1.069018	-0.927221	0.340272
C	0.985955	0.46377	0.985131
C	0.145311	1.292544	0.002206
O	0.194903	2.487648	-0.132401
C	-0.764654	0.337542	-0.764022
C	-2.112306	0.044391	-0.023929
C	-1.535357	-1.310118	0.477499
C	-0.267525	-1.092946	-0.398458
H	2.909411	-0.69242	-0.272669
H	1.227396	-1.727052	1.078722
H	0.450001	0.423416	1.942965
H	1.955907	0.929104	1.178724
H	-0.846972	0.638148	-1.808507
H	-2.409412	0.769434	0.738147
H	-2.944026	-0.073038	-0.721378
H	-1.331605	-1.341705	1.552077
H	-2.127881	-2.19206	0.226329
H	-0.154814	-1.797473	-1.222712
