19

O	2.616216	-0.969605	0.04646
C	1.47745	-0.262904	-0.391206
C	1.379689	1.248551	-0.018795
C	-0.00959	0.982772	0.610349
O	-1.09467	1.307206	-0.262129
C	-1.757365	0.126343	-0.644961
C	-2.328168	-0.760108	0.432103
C	-0.991463	-1.091542	-0.213029
C	0.231652	-0.553098	0.489508
H	3.362404	-0.709902	-0.503505
H	1.277565	-0.448304	-1.45595
H	2.129236	1.507699	0.734305
H	1.39689	1.978648	-0.830336
H	-0.195322	1.410132	1.599468
H	-2.24935	0.226857	-1.605285
H	-2.335986	-0.389737	1.452325
H	-3.175231	-1.386741	0.173429
H	-0.90018	-1.9707	-0.841345
H	0.504375	-1.058853	1.41843
