19

O	-3.163026	-0.263137	0.054577
C	-2.13896	0.704681	-0.053223
C	-0.83578	0.065323	-0.482382
O	-0.449834	-0.979692	0.531431
C	0.878704	-0.460726	0.396219
C	1.718591	-0.785593	-0.87779
C	2.001371	0.678144	-0.500292
C	2.147235	0.181629	1.02461
C	0.470147	0.876125	-0.175024
H	-2.828698	-0.942138	0.653186
H	-2.456899	1.433039	-0.80802
H	-1.987448	1.241113	0.896076
H	-0.936593	-0.408145	-1.461489
H	2.540387	-1.493742	-0.756345
H	1.173277	-0.956588	-1.806063
H	2.687689	1.366839	-0.994251
H	3.01576	-0.448234	1.238953
H	1.980637	0.936812	1.795139
H	0.266923	1.656171	0.56203
