19

C	-2.786123	-0.852046	-0.159653
C	-1.611045	-0.011335	0.308235
C	-1.154253	1.098049	-0.672857
C	0.350989	1.154434	-0.492068
C	0.906149	1.194402	0.904016
C	0.693609	-0.146016	0.227539
O	-0.471614	-0.868785	0.497819
C	1.847612	-0.975612	-0.180788
O	2.958302	-0.540356	-0.37403
H	-3.006735	-1.639921	0.565557
H	-3.679121	-0.229286	-0.272082
H	-2.56264	-1.320918	-1.122738
H	-1.859968	0.446199	1.276735
H	-1.387098	0.818047	-1.706189
H	-1.65878	2.045595	-0.461029
H	0.97851	1.491916	-1.308283
H	1.942798	1.495031	1.006047
H	0.258565	1.44599	1.736832
H	1.599348	-2.050772	-0.311712
