19

C	1.39016	1.575696	0.349972
C	1.85133	0.180898	-0.005264
C	3.183603	0.087262	-0.717061
O	1.643756	-0.808244	1.009487
C	0.864253	-0.913347	-0.198315
C	-0.557143	-0.724008	-0.104285
C	-1.756259	-0.602444	-0.063459
C	-3.203286	-0.410027	0.022456
O	-3.623079	0.914281	-0.273919
H	0.41823	1.550509	0.844927
H	2.113254	2.048484	1.023144
H	1.310902	2.196742	-0.548483
H	3.972888	0.530436	-0.100098
H	3.449227	-0.954193	-0.913404
H	3.156608	0.629684	-1.667887
H	1.166938	-1.741387	-0.840298
H	-3.708853	-1.052446	-0.70699
H	-3.549697	-0.72912	1.018529
H	-3.130859	1.50881	0.301748
