19

C	2.296206	-0.668666	-1.029636
C	1.257252	-0.430968	0.026418
C	1.440068	0.555076	1.163618
C	0.276082	0.718817	0.225638
O	0.10666	1.831711	-0.577766
C	-0.865723	-0.244686	0.606328
C	0.16215	-1.426375	0.431696
C	-1.953862	-0.290707	-0.43366
O	-3.127274	-0.144535	-0.206998
H	1.85128	-1.100043	-1.933368
H	2.786194	0.267677	-1.313548
H	3.071642	-1.358984	-0.677321
H	1.301022	0.258096	2.201463
H	2.232914	1.278939	0.999283
H	-0.072321	2.595066	-0.016811
H	-1.316746	-0.109727	1.593573
H	0.34691	-2.018824	1.332598
H	-0.122221	-2.101524	-0.381514
H	-1.586795	-0.483035	-1.468651
