19

C	4.158037	0.333064	-0.385287
C	2.826245	-0.142357	-0.037633
C	1.730679	-0.546035	0.258042
C	0.394126	-1.025925	0.591493
C	-0.743789	-0.303068	-0.177901
C	-2.114037	-0.951646	0.077429
O	-3.136758	-0.390007	-0.71191
C	-0.757679	1.177824	0.146515
O	-1.761614	1.823619	0.348032
H	4.13627	0.951182	-1.289466
H	4.588	0.938561	0.420019
H	4.840774	-0.502903	-0.572689
H	0.322557	-2.098408	0.370902
H	0.21912	-0.92997	1.671682
H	-0.51851	-0.372332	-1.252606
H	-2.063149	-2.015646	-0.178737
H	-2.345048	-0.886341	1.153792
H	-3.194984	0.535142	-0.438472
H	0.240455	1.660679	0.190653
