19

C	-1.603007	1.329775	0.987214
C	-0.65146	0.621148	0.054443
C	0.362009	1.386108	-0.730862
C	1.506779	0.713546	-0.890909
C	1.497501	-0.606967	-0.147355
O	2.472393	-0.665056	0.891049
C	0.059183	-0.696951	0.365876
C	-1.062664	-0.667085	-0.641713
O	-2.29783	-1.207823	-0.277677
H	-1.065619	1.82692	1.802003
H	-2.177714	2.094422	0.451614
H	-2.3145	0.622276	1.417304
H	0.143991	2.363946	-1.148326
H	2.369608	1.045426	-1.456563
H	1.746959	-1.451466	-0.801067
H	2.375015	0.141351	1.410285
H	-0.12334	-1.22113	1.297988
H	-0.814319	-0.759027	-1.700285
H	-2.186632	-2.157128	-0.160091
