19

C	-0.45804	2.260046	0.003096
C	-0.182747	1.065342	0.917405
C	-0.321366	-0.314735	0.234887
C	0.024714	-1.463774	1.195887
O	0.522993	-0.391266	-0.971976
C	1.853319	-0.286764	-0.886567
O	2.522946	-0.120933	0.097447
C	-1.681359	-0.499743	-0.280687
C	-2.812191	-0.659835	-0.652053
H	0.254306	2.304633	-0.825684
H	-1.464834	2.211666	-0.421422
H	-0.370535	3.193016	0.567066
H	0.82249	1.127885	1.339124
H	-0.889373	1.066901	1.754962
H	-0.03473	-2.420827	0.672088
H	1.027844	-1.331429	1.600528
H	-0.698719	-1.476336	2.015007
H	2.26118	-0.380059	-1.90649
H	-3.809121	-0.80108	-0.990755
