19

C	-2.284895	-0.948766	-0.007102
C	-0.973689	-0.201327	0.005558
C	-0.861211	1.056513	-0.886216
C	0.464705	1.705856	-0.386178
C	0.939875	0.707054	0.712556
C	-0.397854	0.288322	1.347382
C	1.281717	-0.577321	-0.035342
O	2.33964	-1.07613	-0.285084
O	0.088556	-1.103928	-0.450947
H	-2.223731	-1.846751	0.613737
H	-3.085169	-0.310887	0.380296
H	-2.549525	-1.253521	-1.023812
H	-0.827671	0.771914	-1.940114
H	-1.722364	1.714584	-0.740428
H	1.207379	1.830443	-1.177133
H	0.288301	2.687752	0.061156
H	1.746217	1.059002	1.351637
H	-0.309133	-0.515431	2.082924
H	-0.961759	1.121372	1.776041
