19

C	-0.487949	1.797081	1.017474
C	-0.587586	0.58507	0.123955
C	-1.896848	0.248131	-0.625426
C	-1.686815	-1.262095	-0.315977
C	-0.523205	-0.922809	0.669097
C	0.88185	-0.959214	0.115597
O	1.914061	-1.43687	0.510548
C	0.689804	0.282825	-0.765651
O	1.76681	1.173315	-0.74612
H	-0.539206	2.717532	0.425421
H	-1.30399	1.814804	1.74698
H	0.461486	1.815498	1.560638
H	-2.776789	0.651196	-0.11605
H	-1.94195	0.5444	-1.677949
H	-2.531585	-1.756478	0.165685
H	-1.383544	-1.870474	-1.171539
H	-0.649832	-1.215846	1.711698
H	0.399996	0.065414	-1.802554
H	2.482944	0.728458	-0.27217
