19

C	0.860792	2.153163	0.088834
C	0.505907	0.696925	0.020789
C	1.481958	-0.509819	-0.151299
C	0.942774	-1.13873	1.151705
C	-0.273309	-0.17745	1.098432
C	-1.2994	-0.570457	0.000151
O	-2.503157	0.169507	0.055583
C	-0.313371	-0.051751	-1.081339
O	0.762992	-0.982815	-1.31254
H	1.412454	2.466666	-0.804742
H	-0.032903	2.784468	0.163634
H	1.486681	2.370009	0.962181
H	2.558578	-0.461651	-0.329391
H	0.756477	-2.216132	1.142258
H	1.594848	-0.89037	1.995912
H	-0.687288	0.200862	2.034809
H	-1.584869	-1.62291	-0.073589
H	-2.28708	1.096968	0.203634
H	-0.727676	0.36728	-2.002692
