19

O	-1.731376	-0.958198	-0.983712
C	-1.744177	-0.260212	0.237757
C	-1.588252	1.280404	0.013131
C	-0.100405	1.070487	0.219266
C	1.057892	1.430578	-0.313777
C	2.194052	0.450473	-0.112217
C	1.644608	-0.974989	-0.310282
O	0.567635	-1.307718	0.575727
C	-0.31834	-0.253385	0.897077
H	-1.152734	-1.719793	-0.844893
H	-2.579048	-0.578131	0.875633
H	-1.911912	1.649323	-0.962118
H	-2.076484	1.859828	0.8034
H	1.177082	2.292713	-0.962683
H	2.997006	0.617838	-0.837388
H	2.643809	0.537427	0.885332
H	1.313645	-1.077061	-1.353119
H	2.415927	-1.726768	-0.116679
H	-0.38964	-0.188188	1.990667
