19

C	-4.305232	0.220122	0.191189
C	-3.248397	-0.778516	-0.315962
C	-1.880225	-0.35685	-0.038126
C	-0.757265	0.013675	0.194656
C	0.579553	0.442056	0.49928
O	1.118858	1.551152	-0.248688
C	1.702018	0.270192	-0.451991
C	3.122758	0.087129	0.033639
O	3.499077	-1.278607	0.055085
H	-5.311187	-0.141592	-0.040959
H	-4.226989	0.352777	1.273519
H	-4.172186	1.197829	-0.279177
H	-3.420995	-1.761495	0.141034
H	-3.367886	-0.9247	-1.397007
H	0.829933	0.481196	1.560389
H	1.475678	-0.190583	-1.414031
H	3.812977	0.579757	-0.65947
H	3.238289	0.574196	1.013969
H	2.919624	-1.734597	0.674448
