19

C	2.759202	-0.372421	-0.688946
C	2.100944	0.456974	0.430511
C	0.612718	0.568867	0.284586
C	-0.084968	1.653119	-0.078405
C	-1.576262	1.425444	-0.150222
C	-1.644058	-0.091826	-0.005462
O	-2.493379	-0.844782	-0.409022
C	-0.326545	-0.575595	0.617036
O	0.039696	-1.846857	0.133648
H	3.838434	-0.448196	-0.52434
H	2.335991	-1.377824	-0.723991
H	2.595646	0.098331	-1.663496
H	2.334551	-0.004786	1.399175
H	2.535399	1.463379	0.447224
H	0.360865	2.618328	-0.294522
H	-2.126428	1.907435	0.671192
H	-2.051409	1.754314	-1.080845
H	-0.460889	-0.620386	1.716013
H	-0.778884	-2.244856	-0.198002
