19

C	2.78385	0.41434	-0.674583
C	2.035127	-0.242603	0.493446
C	0.553308	-0.208412	0.304269
O	0.001026	-0.908566	-0.821085
C	-1.273573	-1.014007	-0.113393
C	-2.136799	0.139612	-0.601185
O	-1.38467	1.307014	-0.242454
C	-0.413424	0.904041	0.694654
C	-0.638121	-0.495023	1.195615
H	3.86607	0.345513	-0.531658
H	2.530971	-0.078061	-1.617571
H	2.516978	1.471686	-0.767235
H	2.355384	-1.286197	0.604502
H	2.275607	0.263991	1.436114
H	-1.703267	-2.01489	-0.165035
H	-2.264037	0.12331	-1.687586
H	-3.125415	0.148887	-0.116165
H	-0.083172	1.701115	1.350356
H	-0.76217	-0.85063	2.209654
