19

C	2.565903	0.434166	-0.342148
C	1.4768	-0.438392	0.278217
O	1.672777	-1.810893	-0.042517
C	0.042756	0.023547	-0.114605
C	-1.015868	-0.980609	0.394986
C	-2.365773	-0.639829	-0.035606
C	-3.465594	-0.327715	-0.406818
C	-0.228779	1.404039	0.459224
O	-0.070697	2.440835	-0.130601
H	2.455293	1.48418	-0.061595
H	3.54949	0.081813	-0.02109
H	2.520576	0.383338	-1.437188
H	1.560402	-0.403934	1.37245
H	1.780014	-1.876543	-0.998549
H	-0.012462	0.10642	-1.206187
H	-0.737929	-1.9807	0.050995
H	-0.976129	-1.01905	1.492706
H	-4.442149	-0.061445	-0.727607
H	-0.57042	1.395142	1.521513
