19

C	-2.80038	-0.230619	0.142673
C	-1.386583	0.236465	0.020132
C	-0.903671	1.483136	-0.114563
C	0.594959	1.553756	-0.269029
C	1.066395	0.106759	-0.023391
C	1.761345	-0.070557	1.333572
O	1.903644	-0.3391	-1.077996
C	-0.247684	-0.702966	-0.040018
O	-0.280635	-1.912182	-0.136052
H	-3.029872	-0.957609	-0.643638
H	-2.959675	-0.746852	1.096012
H	-3.509284	0.598203	0.074358
H	-1.520082	2.377164	-0.135768
H	0.872965	1.862356	-1.283298
H	1.045363	2.277386	0.419727
H	1.942775	-1.13343	1.520818
H	2.720665	0.454515	1.324175
H	1.150714	0.322811	2.153434
H	1.796073	-1.300138	-1.109702
