19

C	-1.708128	1.591281	-0.127985
C	-0.811385	0.68755	0.707291
C	-0.926898	-0.887138	0.311846
O	-2.122852	-1.341864	-0.243857
C	0.307247	-0.674051	-0.655656
C	1.86169	-0.580364	-0.476449
C	1.688043	-0.347301	1.022112
C	0.639652	0.495812	0.234206
O	1.748174	0.923232	-0.682547
H	-2.761184	1.375663	0.078274
H	-1.52487	2.643073	0.108489
H	-1.534	1.466231	-1.201995
H	-0.929882	0.909304	1.772703
H	-0.736429	-1.521565	1.177367
H	-2.286838	-0.859654	-1.061199
H	-0.021898	-0.383766	-1.657184
H	2.673348	-1.053088	-1.034414
H	1.339328	-1.176459	1.641391
H	2.478529	0.234585	1.49561
