19

C	-3.024961	-0.254442	0.104587
C	-1.614448	-0.755588	-0.22145
C	-0.518939	0.071415	0.449153
C	-0.208028	1.435872	-0.211511
O	0.945169	1.974073	0.442764
C	1.147959	1.01255	-0.605048
C	0.922569	-0.347331	0.037481
C	1.868789	-1.306879	0.596799
O	1.178284	-1.561637	-0.64204
H	-3.783737	-0.870224	-0.387639
H	-3.217054	-0.285963	1.182643
H	-3.174186	0.779433	-0.225375
H	-1.505652	-1.799327	0.093532
H	-1.456244	-0.756138	-1.306844
H	-0.688248	0.149957	1.528151
H	-0.887429	2.134158	-0.686153
H	1.78065	1.287676	-1.4408
H	2.939974	-1.134246	0.505783
H	1.566652	-1.938391	1.430837
