19

C	-1.889097	-1.462801	0.012021
C	-0.83059	-0.393793	-0.001998
O	-0.68236	0.237793	-1.293456
C	-0.716389	1.562781	-0.701293
C	-0.86579	0.986978	0.719924
C	0.471572	0.668867	1.433129
C	0.570923	-0.678244	0.667025
C	1.688818	-0.814792	-0.333607
O	2.572444	-0.010073	-0.48756
H	-2.022286	-1.86847	1.019928
H	-2.845553	-1.060769	-0.335009
H	-1.607427	-2.286834	-0.653522
H	0.20405	2.124681	-0.897364
H	-1.576734	2.133421	-1.069923
H	-1.706639	1.334289	1.319518
H	1.295575	1.357976	1.237009
H	0.363425	0.540173	2.511854
H	0.557155	-1.573275	1.299582
H	1.641083	-1.736934	-0.955152
