19

C	-2.637935	0.043351	-0.370007
C	-1.230861	-0.529853	-0.342282
C	-0.647806	-1.039342	1.070018
C	0.685093	-0.512257	0.529771
C	1.457655	-1.122524	-0.666095
C	1.497947	0.395102	-0.796633
O	1.826438	0.454839	0.715679
C	-0.009661	0.483877	-0.373545
O	-0.401749	1.697875	0.188441
H	-2.89027	0.404429	-1.372513
H	-3.367232	-0.727534	-0.097704
H	-2.733684	0.879646	0.324389
H	-1.134303	-1.32011	-1.08733
H	-1.050481	-0.421486	1.875209
H	-0.729794	-2.098004	1.327446
H	2.409319	-1.578327	-0.395483
H	0.911948	-1.695104	-1.416888
H	2.136162	1.040669	-1.408256
H	0.364227	1.983988	0.710807
