19

O	-1.418132	1.798549	-0.032308
C	-1.438376	0.437846	-0.36224
C	-1.258509	-0.6831	0.715634
C	-0.835154	-1.58263	-0.481805
C	-0.20828	-0.261738	-1.020874
C	0.865317	-0.010755	0.029947
C	2.014983	0.889206	-0.11766
O	2.17181	-0.53587	-0.166815
C	0.104246	-0.315086	1.337866
H	-0.570059	2.010763	0.370171
H	-2.346543	0.281005	-0.947948
H	-2.062788	-0.961843	1.395626
H	-0.15256	-2.409915	-0.278092
H	-1.681272	-1.924611	-1.081171
H	0.07198	-0.114914	-2.063175
H	2.184778	1.408659	-1.060474
H	2.445254	1.372249	0.759719
H	0.568671	-1.146323	1.87488
H	0.047753	0.541035	2.018231
