19

O	0.255053	2.041382	0.773054
C	0.123401	1.104966	-0.301281
C	-1.345359	0.975814	-0.604978
C	-2.049185	-0.129092	-0.363417
C	-1.474106	-1.370473	0.265955
C	-0.137225	-1.083149	0.967789
C	0.733282	-0.243149	0.063939
C	2.188846	-0.417129	-0.004433
O	1.345988	-0.942858	-1.032655
H	1.194544	2.22225	0.887191
H	0.64753	1.472392	-1.197497
H	-1.819165	1.852303	-1.037373
H	-3.102352	-0.159491	-0.63338
H	-2.192709	-1.793684	0.977478
H	-1.328785	-2.137844	-0.507158
H	-0.319945	-0.513437	1.886189
H	0.37278	-2.01229	1.237087
H	2.828911	0.412636	-0.308543
H	2.672939	-1.157758	0.631369
