19

C	-2.030352	1.292498	-0.305999
C	-0.635642	0.835068	-0.022183
C	0.456861	1.592332	0.144451
C	1.670941	0.74747	0.332177
O	1.948195	-0.122235	-0.798374
C	1.218793	-0.64975	0.306329
C	-0.306951	-0.656519	0.129642
C	-0.759839	-1.522082	-1.041228
O	-0.931811	-1.192821	1.299745
H	-2.739641	0.809317	0.375235
H	-2.125265	2.376516	-0.202228
H	-2.33832	1.024617	-1.32433
H	0.482734	2.675236	0.102595
H	2.550408	1.094716	0.865118
H	1.683947	-1.46339	0.858452
H	-0.244048	-1.214042	-1.953058
H	-0.525808	-2.570532	-0.835712
H	-1.839732	-1.440115	-1.190475
H	-0.718216	-0.605982	2.034303
