19

O	-0.263921	0.451373	1.562065
C	0.110249	-0.143095	0.342356
C	0.992177	-1.441677	0.414028
C	1.979613	-0.838514	-0.637038
C	1.33805	0.514885	-0.319278
O	1.726233	1.649495	-0.285481
C	-1.081738	-0.29837	-0.587211
C	-2.145983	0.764141	-0.646262
C	-2.448245	-0.570759	-0.010379
H	0.168552	1.314155	1.596703
H	1.449786	-1.538622	1.399776
H	0.490971	-2.370934	0.141679
H	3.053233	-0.912207	-0.454229
H	1.770099	-1.170534	-1.658366
H	-0.845376	-0.799953	-1.52187
H	-2.039948	1.609686	0.023051
H	-2.583736	0.997674	-1.610166
H	-2.533387	-0.590209	1.069433
H	-3.093441	-1.265675	-0.535976
