19

C	-0.500587	2.062935	0.483453
C	-0.467284	0.786636	-0.347084
C	-1.613484	-0.261505	-0.268148
O	-2.780748	-0.213882	-0.535745
C	-0.668405	-1.376842	0.078011
C	0.130914	-0.967121	1.31092
C	0.505406	-0.365043	-0.002947
C	1.847064	-0.550769	-0.648038
O	2.770815	0.458964	-0.261165
H	-1.358551	2.678295	0.196296
H	-0.586387	1.854463	1.55428
H	0.41049	2.647682	0.324469
H	-0.36349	1.041837	-1.410459
H	-0.729735	-2.41243	-0.233941
H	-0.337684	-0.379994	2.094649
H	0.783715	-1.752538	1.681883
H	2.23314	-1.559181	-0.428618
H	1.761506	-0.462814	-1.736621
H	2.864716	0.414281	0.696334
