19

O	3.429012	0.1337	0.204255
C	2.058541	0.4371	0.408792
C	1.242488	-0.524029	-0.451885
C	-0.238737	-0.27057	-0.366137
O	-1.099082	-1.395273	-0.685448
C	-1.162345	-0.847968	0.633535
C	-2.31332	0.126439	0.853514
C	-2.005292	1.239202	-0.129726
C	-0.857893	1.032461	-0.779741
H	3.954022	0.738061	0.736793
H	1.773716	0.319413	1.466693
H	1.832492	1.477935	0.127013
H	1.576449	-0.42821	-1.492513
H	1.448712	-1.553548	-0.145379
H	-0.836603	-1.513292	1.429618
H	-3.285105	-0.342231	0.656043
H	-2.338186	0.48807	1.889705
H	-2.680225	2.071671	-0.294289
H	-0.425363	1.678913	-1.53425
