19

C	-1.357806	2.099507	0.194774
O	-1.884495	0.910345	-0.355384
C	-1.342577	-0.28331	0.181253
C	-2.234416	-1.431873	-0.275583
C	0.087548	-0.491	-0.291863
O	0.812768	-1.541511	0.3399
C	1.257755	-0.192347	0.563113
C	2.527185	0.191367	0.007958
C	3.588705	0.534638	-0.439277
H	-0.295775	2.243223	-0.047668
H	-1.928135	2.927594	-0.23273
H	-1.469575	2.121662	1.290128
H	-1.33736	-0.236635	1.283784
H	-1.850542	-2.381219	0.106289
H	-3.253705	-1.284001	0.089428
H	-2.263994	-1.477318	-1.368681
H	0.224978	-0.427894	-1.372527
H	1.062504	0.170334	1.572251
H	4.527055	0.831688	-0.838657
