19

C	2.025333	-1.2534	0.537087
C	1.406413	-0.308938	-0.490378
O	1.393195	1.049139	-0.011562
C	0.040588	1.468545	0.094524
C	-0.731275	0.677205	1.201825
C	-1.181477	-0.271743	0.090064
O	-2.342962	-1.020815	0.102845
C	-0.777882	0.714856	-0.985605
C	-0.04061	-0.592096	-0.876014
H	3.027045	-0.911259	0.812081
H	1.420165	-1.312324	1.445694
H	2.113534	-2.261381	0.116499
H	2.02709	-0.327478	-1.398574
H	0.014218	2.555921	0.139323
H	-0.140103	0.301337	2.042584
H	-1.588358	1.246249	1.575056
H	-2.165662	-1.850463	0.559708
H	-1.296523	1.096782	-1.853723
H	-0.259808	-1.370546	-1.597932
