19

O	-2.973792	-0.719576	-0.057033
C	-2.089556	-0.023279	0.369463
C	-1.189277	0.853668	-0.479635
C	0.288001	0.617924	-0.194928
C	1.25261	1.767848	-0.372434
C	0.922658	1.268136	1.011641
C	0.76519	-0.748396	-0.604476
C	0.893377	-1.870229	0.337556
O	2.044978	-1.161219	-0.133817
H	-1.870844	0.022839	1.461654
H	-1.434259	0.681033	-1.53328
H	-1.435932	1.898601	-0.246189
H	2.237491	1.533616	-0.76025
H	0.85313	2.724683	-0.690854
H	1.693284	0.709484	1.529678
H	0.297369	1.885242	1.647686
H	0.579502	-0.994341	-1.652612
H	0.655138	-1.715368	1.388378
H	0.797618	-2.893463	-0.020529
