19

O	-3.16607	-0.184229	-0.172406
C	-2.077433	-0.118995	0.336809
C	-0.775567	0.061112	-0.413571
C	-0.108544	1.396071	0.01846
O	1.309419	1.392473	-0.086411
C	1.905121	0.122629	0.148527
C	1.48264	-0.871619	-0.963728
C	0.204428	-1.098267	-0.106873
C	1.077587	-0.744444	1.136933
H	-1.958332	-0.198559	1.444052
H	-1.012386	0.065453	-1.481843
H	-0.467217	2.223832	-0.598345
H	-0.396226	1.619065	1.058021
H	2.962992	0.309834	0.339212
H	1.366459	-0.463742	-1.970719
H	2.119503	-1.759743	-0.987115
H	-0.289392	-2.071741	-0.147941
H	0.621589	-0.261512	2.003975
H	1.656824	-1.607759	1.471885
