19

C	-3.36961	-0.060944	-0.262642
O	-2.001067	-0.380714	-0.190103
C	-1.186324	0.743795	0.026653
C	0.243698	0.312559	0.206686
O	0.497847	-0.679408	1.227102
C	0.799307	-1.009203	-0.134465
C	2.266038	-0.829121	-0.509188
C	2.490532	0.655761	-0.298792
C	1.373561	1.288501	0.067742
H	-3.586638	0.626543	-1.095979
H	-3.913798	-0.994307	-0.424186
H	-3.729388	0.404653	0.668351
H	-1.245394	1.445021	-0.824891
H	-1.517566	1.298088	0.922863
H	0.195059	-1.802872	-0.561057
H	2.923577	-1.440732	0.120584
H	2.451413	-1.128201	-1.548911
H	3.46613	1.117069	-0.404779
H	1.279159	2.347621	0.276036
