19

C	-2.55659	-0.695225	-0.419743
C	-1.107644	-0.251979	-0.566954
C	-0.762063	1.091734	0.120268
C	0.520438	1.715973	-0.435244
C	1.711867	0.745111	-0.205596
C	1.268069	-0.704289	0.009047
O	1.955085	-1.666485	-0.230691
C	-0.158258	-0.795101	0.535599
O	-0.429818	0.375506	1.350616
H	-2.88957	-0.583062	0.616286
H	-3.213044	-0.093272	-1.05738
H	-2.678163	-1.744105	-0.708156
H	-0.760868	-0.365064	-1.599376
H	-1.569685	1.814585	0.269765
H	0.386674	1.930457	-1.501626
H	0.717443	2.671281	0.059861
H	2.450811	0.774414	-1.009048
H	2.235242	1.028844	0.714851
H	-0.375883	-1.743599	1.03115
