19

C	-1.139864	-1.145181	1.249795
C	-0.630219	-0.575092	-0.062119
O	-0.748602	-1.490156	-1.134361
C	-1.246431	0.766035	-0.530548
O	-0.96406	1.743336	0.470525
C	0.058428	1.439766	-0.499855
C	0.749256	0.177174	-0.035326
C	2.04139	-0.370961	-0.550572
C	1.910602	0.03755	0.900358
H	-0.494149	-1.961255	1.598962
H	-1.150351	-0.369803	2.019003
H	-2.151474	-1.543067	1.123662
H	-0.301042	-2.305658	-0.885375
H	-2.112882	0.903124	-1.167
H	0.444863	2.263688	-1.088969
H	2.086351	-1.429186	-0.78996
H	2.635923	0.251649	-1.211729
H	1.869492	-0.749047	1.647706
H	2.415605	0.938373	1.233991
