19

C	-1.664881	1.806456	0.035391
C	-1.18853	0.387662	0.036358
C	-1.310921	-0.707592	1.133585
C	-0.815566	-1.360341	-0.174772
O	-1.825319	-0.568666	-0.911412
C	0.19403	-0.201737	-0.403866
C	1.443994	-0.035183	0.408624
C	2.537282	0.833133	-0.054077
O	2.636278	-0.583849	-0.171468
H	-1.106827	2.395784	0.769825
H	-1.523614	2.257757	-0.951341
H	-2.728091	1.853066	0.289577
H	-0.646065	-0.670636	1.999304
H	-2.336757	-0.95974	1.405393
H	-0.719049	-2.414486	-0.431965
H	0.395025	-0.037247	-1.465485
H	1.370004	-0.206734	1.481957
H	2.429179	1.374183	-0.993627
H	3.206078	1.293793	0.671952
