19

O	1.589634	1.428938	-0.601729
C	1.139181	0.292614	0.047556
C	2.005103	-0.915496	0.264949
C	0.753628	-1.037098	-0.578195
C	-0.472541	-1.134401	0.333618
C	-1.812052	-0.853538	-0.350961
O	-1.833426	0.53884	-0.624358
C	-1.232232	1.178508	0.493107
C	-0.092019	0.265912	0.961003
H	2.269307	1.84079	-0.056813
H	2.928582	-0.902619	-0.305935
H	2.074478	-1.405549	1.234585
H	0.791056	-1.343192	-1.616897
H	-0.507561	-2.001994	0.998519
H	-1.941758	-1.381897	-1.300435
H	-2.641557	-1.135422	0.319724
H	-0.883087	2.160973	0.164816
H	-1.963665	1.312613	1.306831
H	0.090132	0.335066	2.037842
