19

C	2.257021	-0.270278	-0.042322
O	1.272458	-1.119237	-0.693453
C	0.19559	-0.483188	0.005683
C	-0.980322	-1.330128	0.470958
C	-2.230395	-0.555369	-0.023548
C	-1.788372	0.925664	-0.100501
C	-0.338939	0.838806	-0.5961
O	0.62974	1.622768	0.158095
C	1.165565	0.443823	0.777311
H	2.968707	-0.870905	0.536765
H	2.792946	0.376137	-0.745064
H	-0.90938	-2.336715	0.050109
H	-0.981316	-1.43486	1.56104
H	-2.505468	-0.908631	-1.02389
H	-3.104191	-0.699285	0.61696
H	-2.43476	1.531117	-0.74089
H	-1.786493	1.38009	0.896145
H	-0.225415	0.980307	-1.675559
H	1.286892	0.538516	1.858357
