19

C	-0.472778	1.766461	0.202603
C	-0.407076	0.238678	0.226473
C	-1.812197	-0.319687	0.483713
O	-2.713406	-0.003821	-0.570109
C	0.799318	-0.426843	1.010585
C	0.663344	-1.671454	0.063645
C	0.463053	-0.458238	-0.906865
C	1.663336	0.122089	-0.13782
O	2.710027	0.655828	-0.331634
H	-1.245789	2.091115	-0.498722
H	-0.741773	2.151712	1.192727
H	0.47631	2.22411	-0.087886
H	-1.815308	-1.395654	0.68908
H	-2.222062	0.171657	1.372918
H	-2.430023	-0.488071	-1.352381
H	0.984712	-0.417198	2.083204
H	1.561703	-2.272949	-0.08465
H	-0.203376	-2.307558	0.226117
H	0.280643	-0.47925	-1.980475
