19

C	0.019657	2.082667	0.21618
C	0.072756	0.666347	-0.328501
O	-1.191537	0.358655	-0.934564
C	-1.887595	-0.462154	0.02871
O	-0.991871	-0.856249	1.093823
C	0.241195	-0.579599	0.508862
C	1.695716	-0.166277	0.834326
C	1.469281	0.042997	-0.734842
C	0.800204	-1.34367	-0.742301
H	-0.316441	2.747785	-0.584987
H	-0.701129	2.164698	1.037298
H	0.98831	2.446018	0.566003
H	-2.717528	0.090647	0.483126
H	-2.257767	-1.350897	-0.497201
H	1.851235	0.716483	1.452922
H	2.391246	-0.966966	1.091708
H	2.21089	0.428635	-1.432252
H	0.101674	-1.542067	-1.552886
H	1.449491	-2.19545	-0.532404
