19

O	2.560624	-0.894062	0.445642
C	1.784332	-0.048449	-0.363399
C	1.313897	1.352723	0.184906
C	-0.100402	1.059152	-0.408215
C	-1.386629	1.167362	0.404085
O	-2.313877	0.207226	-0.093448
C	-1.928986	-1.145424	0.103542
C	-0.459996	-1.409417	-0.119701
C	0.321987	-0.393861	-0.451935
H	3.488408	-0.67784	0.311643
H	2.234036	0.073752	-1.361234
H	1.304711	1.331193	1.278017
H	1.843981	2.240955	-0.167154
H	-0.229966	1.512402	-1.396724
H	-1.171749	0.989922	1.47037
H	-1.884474	2.136559	0.308626
H	-2.19196	-1.470884	1.126976
H	-2.553066	-1.731313	-0.582541
H	-0.079112	-2.402567	0.098769
