19

C	2.870192	-0.137843	-0.087497
O	1.640944	0.502517	0.171873
C	0.550852	-0.065056	-0.511298
C	0.020443	-1.36638	0.097512
C	-1.500432	-1.261407	-0.085011
O	-1.780445	-0.065789	-0.815628
C	-0.766076	0.577446	0.016452
C	-0.926345	2.050347	0.20183
C	-0.863547	-0.594344	1.077304
H	3.102226	-0.146578	-1.163788
H	3.645983	0.425903	0.436264
H	2.88087	-1.175812	0.276082
H	0.708376	-0.028055	-1.600169
H	0.5265	-2.311098	0.248123
H	-2.171307	-2.105484	-0.174797
H	-0.947124	2.54712	-0.774316
H	-1.857765	2.281393	0.725832
H	-0.081755	2.443995	0.773043
H	-1.000519	-0.641786	2.148003
