19

C	-0.9251	-0.801124	1.461799
C	-0.677401	-0.403247	-0.005115
C	-1.932312	-0.606797	-0.849544
O	0.326469	-1.231434	-0.611294
C	1.640257	-1.093855	-0.1252
C	2.083697	0.331065	-0.007967
C	1.204838	1.338246	-0.019628
C	-0.24668	1.07753	-0.039062
O	-1.06464	1.975453	-0.006299
H	-0.04034	-0.641061	2.085871
H	-1.73791	-0.199654	1.876816
H	-1.201778	-1.858087	1.514133
H	-2.714113	0.080944	-0.524416
H	-1.711277	-0.412854	-1.902232
H	-2.285275	-1.637033	-0.75347
H	1.775837	-1.598204	0.84999
H	2.282247	-1.628694	-0.835476
H	3.151371	0.511561	0.095581
H	1.502819	2.380028	0.042247
