19

C	1.577814	-1.502633	-0.783508
C	0.479577	-0.714455	-0.142713
C	0.226862	-0.210931	1.250431
O	-1.135826	-0.631052	1.289134
C	-1.051162	-0.947292	-0.144949
C	-1.675941	0.210359	-0.91933
C	-0.802273	1.424896	-0.496803
C	0.445416	0.781733	0.113965
O	1.67289	1.440012	0.064577
H	1.60114	-2.536564	-0.422491
H	1.464674	-1.529543	-1.873934
H	2.544375	-1.03991	-0.564787
H	0.814437	-0.243692	2.162562
H	-1.439052	-1.946335	-0.355346
H	-1.598215	0.019808	-1.996283
H	-2.733572	0.336113	-0.672777
H	-0.512123	2.045763	-1.348961
H	-1.325503	2.064792	0.220972
H	1.685574	2.107837	0.758801
