19

C	-0.984612	-1.336886	1.255993
C	-0.722241	-0.576332	-0.04627
O	-0.71789	-1.576671	-1.066075
C	-1.769165	0.549675	-0.304775
C	-1.073596	1.880484	0.071831
C	0.386937	1.525132	0.057471
C	0.588522	0.202219	-0.001929
C	1.909355	-0.455217	-0.014553
O	2.968573	0.132614	0.028282
H	-1.063943	-0.644572	2.098883
H	-1.918234	-1.900908	1.171895
H	-0.177172	-2.044876	1.463728
H	-0.5214	-1.142951	-1.903899
H	-2.015514	0.547435	-1.371935
H	-2.701809	0.381578	0.238965
H	-1.313509	2.703959	-0.610139
H	-1.366644	2.226249	1.073103
H	1.186938	2.255199	0.115892
H	1.874624	-1.563106	-0.080757
