19

C	-2.061952	-0.053603	0.160537
C	-1.286236	-1.359788	0.5192
C	-0.023351	-0.687034	-0.024965
O	1.058183	-1.377606	-0.648479
C	2.017333	-0.466514	-0.061092
C	0.929976	0.199855	0.812552
C	0.512117	1.645185	0.529033
O	-0.272548	1.623966	-0.666259
C	-0.87434	0.352362	-0.777626
H	-3.036267	-0.171439	-0.315066
H	-2.164608	0.625505	1.009898
H	-1.277253	-1.69164	1.559918
H	-1.585995	-2.19769	-0.116695
H	2.806385	-1.003267	0.475778
H	2.469559	0.191824	-0.813102
H	1.010649	-0.025427	1.876458
H	-0.074963	2.041792	1.370813
H	1.354332	2.323096	0.357579
H	-1.068203	0.153585	-1.833514
