19

C	1.753441	-0.705909	1.371107
C	1.24705	-0.706989	-0.073301
O	2.166778	-0.088505	-0.955829
C	-0.141936	-0.074377	-0.19433
O	-0.941775	-0.549535	-1.292238
C	-1.355989	-0.894094	0.02946
C	-2.665811	-0.336065	0.517607
C	-0.164462	1.354067	0.025874
C	-0.098241	2.540148	0.217697
H	1.095498	-1.286723	2.025769
H	2.755347	-1.140866	1.406352
H	1.806084	0.315587	1.763085
H	1.150157	-1.735289	-0.436809
H	2.198995	0.849664	-0.731278
H	-1.175239	-1.942026	0.281385
H	-2.754679	-0.467921	1.601149
H	-2.749532	0.727125	0.284305
H	-3.498839	-0.865499	0.044085
H	-0.072122	3.589587	0.381809
