19

C	-2.319868	0.001218	-0.638299
C	-2.030064	-0.145	0.831838
C	-0.896394	0.0688	-0.141757
C	-0.181542	1.40804	-0.189126
O	1.053741	1.370574	0.504641
C	1.999352	0.541414	-0.136543
C	1.477113	-0.8545	-0.408454
O	0.851036	-1.517259	0.684398
C	0.023568	-1.086961	-0.410276
H	-2.623414	-0.87988	-1.194906
H	-2.777982	0.921985	-0.985796
H	-2.286161	0.677295	1.491822
H	-2.128891	-1.126005	1.28315
H	-0.009681	1.701508	-1.239956
H	-0.781332	2.190679	0.285223
H	2.322145	0.981618	-1.097534
H	2.870388	0.498381	0.52527
H	2.125517	-1.479421	-1.025239
H	-0.381803	-1.910741	-0.99865
