19

O	2.877204	-0.651634	0.259355
C	1.929826	0.066793	-0.517026
C	0.529274	-0.516082	-0.38455
C	-0.705925	0.172208	-1.072501
C	-0.721813	1.585687	-0.442157
C	-0.416509	1.220166	1.055235
C	-0.304418	-0.317709	0.939404
C	-1.493192	-0.604583	0.000403
O	-2.489994	-1.260806	0.040549
H	2.634165	-0.553705	1.18564
H	1.949809	1.137958	-0.274155
H	2.264742	-0.031667	-1.555198
H	0.571469	-1.578038	-0.644306
H	-0.914946	0.073387	-2.135759
H	0.031963	2.245507	-0.877323
H	-1.694471	2.068987	-0.563634
H	0.505929	1.680721	1.418401
H	-1.221039	1.517689	1.732173
H	-0.128763	-0.900187	1.842081
