19

C	-2.450984	-0.460813	0.762519
C	-1.613372	-0.15842	-0.473273
C	-0.445414	-1.147912	-0.706995
C	0.73971	-0.395921	-0.136112
C	1.648745	-0.9071	0.969334
C	2.189118	-0.706673	-0.412319
C	0.331251	1.042324	-0.057284
O	1.016225	1.993801	0.19873
O	-0.997461	1.143745	-0.322871
H	-3.164176	0.346369	0.9483
H	-3.008704	-1.392277	0.621559
H	-1.814974	-0.569711	1.647069
H	-2.258901	-0.085299	-1.352601
H	-0.631765	-2.108822	-0.220825
H	-0.31099	-1.334053	-1.777417
H	1.935101	-0.194254	1.734322
H	1.475368	-1.9197	1.317699
H	2.836632	0.146364	-0.582094
H	2.39798	-1.581889	-1.018107
