19

C	-2.435553	0.027593	-1e-05
C	-0.912149	0.060139	-2e-06
C	-0.313771	-0.671403	-1.228945
O	1.11349	-0.665638	-1.161527
C	1.566162	0.016593	1e-06
O	1.11348	-0.6656	1.161555
C	-0.313779	-0.671305	1.228997
C	1.024343	1.427035	-3.1e-05
C	-0.307853	1.447798	-4.6e-05
H	-2.812168	-1.000675	-0.000842
H	-2.837509	0.531977	0.884964
H	-2.837514	0.533407	-0.884162
H	-0.655828	-1.715564	-1.240821
H	-0.633666	-0.188901	-2.161891
H	2.65306	-0.056177	8e-06
H	-0.65587	-1.715453	1.24101
H	-0.63365	-0.188675	2.161885
H	1.677664	2.290873	-7.2e-05
H	-0.924672	2.340379	-8.1e-05
