19

C	-0.763681	2.142697	-0.070105
C	-0.55122	0.703597	-0.545137
C	-1.798962	-0.152104	-0.620201
C	-1.569793	-1.41015	-0.247019
C	-0.124356	-1.616497	0.143846
C	0.383256	-0.160162	0.368567
O	0.292107	0.20121	1.739357
C	1.853749	-0.000942	0.01387
O	2.290386	-0.112009	-1.102771
H	-1.437084	2.66917	-0.753893
H	-1.200432	2.179658	0.93129
H	0.180862	2.694286	-0.040761
H	-0.083572	0.730893	-1.53961
H	-2.744337	0.236524	-0.983728
H	-2.292913	-2.217749	-0.263574
H	0.023364	-2.212072	1.050854
H	0.433033	-2.105479	-0.665405
H	-0.616378	0.048879	2.022027
H	2.503556	0.22364	0.887188
