19

C	0.704841	2.223595	-0.109491
O	0.69553	0.997137	-0.819076
C	0.74433	-0.170148	-0.047918
C	1.935675	-0.243736	0.901294
C	0.559871	-1.415572	-0.932328
O	-0.512061	-1.908248	-0.100615
C	-0.602579	-0.657548	0.626301
C	-1.806854	0.097287	0.324847
C	-2.813035	0.711898	0.088992
H	1.675742	2.422856	0.363219
H	0.50862	3.006335	-0.845406
H	-0.081322	2.257682	0.655219
H	2.867171	-0.081384	0.349754
H	1.869053	0.502085	1.698902
H	1.97774	-1.230808	1.370233
H	0.217471	-1.16016	-1.941509
H	1.397154	-2.119458	-0.983976
H	-0.531283	-0.835678	1.706499
H	-3.701588	1.252769	-0.125588
