19

O	-4.329391	0.857081	-0.160742
C	-3.659434	-0.249346	0.429537
C	-2.258963	-0.368467	0.026048
C	-1.103076	-0.41736	-0.311624
C	0.300683	-0.489303	-0.696819
C	1.268702	-0.328541	0.495782
C	2.708619	-0.417578	0.056285
C	3.760836	0.432188	0.625477
O	3.220314	0.706653	-0.668192
H	-3.776581	1.633036	-0.021888
H	-3.719097	-0.210997	1.529507
H	-4.220821	-1.136788	0.116076
H	0.494879	-1.446479	-1.199376
H	0.523289	0.291181	-1.43474
H	1.092827	0.638462	0.977584
H	1.065032	-1.106272	1.241105
H	3.010846	-1.379501	-0.36421
H	3.505027	1.153067	1.4012
H	4.793015	0.084863	0.6381
