19

C	1.78859	0.840667	-1.178599
C	0.96772	0.123965	-0.144014
C	1.569888	-0.733697	0.938146
C	0.587767	-1.366435	-0.009784
C	-0.815959	-1.007742	0.430439
O	-1.738572	-0.8859	-0.671374
C	-1.488003	0.523223	-0.821635
C	-0.429491	0.525229	0.302493
O	-0.471509	1.526636	1.268289
H	2.143924	1.805162	-0.798321
H	2.667787	0.251181	-1.457464
H	1.215862	1.032942	-2.092742
H	2.607822	-1.007461	0.77824
H	1.309675	-0.572265	1.980817
H	0.844679	-2.18324	-0.673255
H	-1.262616	-1.50263	1.297427
H	-1.157772	0.794904	-1.831471
H	-2.380266	1.118195	-0.572063
H	-1.391523	1.706074	1.491244
