19

C	2.288428	-1.093344	-0.367047
C	1.00083	-0.636462	0.318217
O	-0.013629	-1.510719	-0.142599
C	-1.312916	-1.189999	0.308416
C	-1.725772	0.22916	-0.067867
O	-2.892094	0.541219	-0.202799
C	-0.614758	1.185233	-0.161322
C	0.658219	0.823848	0.073107
C	1.770739	1.829369	0.151099
H	2.421025	-2.163186	-0.19114
H	2.226631	-0.927256	-1.446373
H	3.160519	-0.56578	0.025392
H	1.125125	-0.7612	1.41344
H	-2.002961	-1.903096	-0.147434
H	-1.394242	-1.292727	1.406278
H	-0.886743	2.219972	-0.350808
H	2.32061	1.732137	1.095679
H	2.501769	1.68139	-0.651862
H	1.385431	2.848912	0.082386
