19

C	-3.435122	0.002857	0.289124
O	-2.205884	-0.320811	-0.317527
C	-1.127078	0.426748	0.199605
C	0.147147	-0.025438	-0.514712
C	0.594823	-1.433885	-0.223209
C	1.857153	-1.496571	0.204453
C	2.508388	-0.142029	0.288819
C	1.369318	0.814987	-0.094407
O	1.406244	2.017118	-0.05068
H	-3.69626	1.062447	0.141704
H	-4.203352	-0.618948	-0.176762
H	-3.421809	-0.198973	1.371896
H	-1.272696	1.505422	0.033579
H	-1.032274	0.267147	1.287329
H	-0.024767	0.12643	-1.590721
H	-0.066643	-2.280389	-0.36014
H	2.380013	-2.409673	0.464764
H	2.89765	0.111878	1.282622
H	3.349485	-0.015821	-0.406658
