19

O	2.524016	-0.271999	0.103502
C	1.160109	-0.04426	-0.071879
C	0.445262	-1.254252	-0.714907
C	-0.68993	-1.194093	0.356553
C	-2.007295	-0.580899	-0.098239
O	-1.739454	0.798065	-0.350914
C	-0.57622	1.211003	0.356578
C	0.677197	1.340245	-0.557873
C	0.048378	-0.026586	1.061
H	2.921027	0.518734	0.483995
H	0.145898	-1.149541	-1.76195
H	1.063553	-2.147724	-0.60699
H	-0.825579	-2.114372	0.925968
H	-2.399631	-1.023867	-1.020782
H	-2.775281	-0.684794	0.684914
H	-0.814016	2.086058	0.967303
H	0.49452	1.491399	-1.625168
H	1.345917	2.12871	-0.190967
H	0.22208	-0.020081	2.135568
