19

C	2.764005	-0.090215	-0.146259
C	1.526048	-0.996012	-0.201682
C	0.268084	-0.291721	0.227074
C	-0.115997	0.316027	1.626588
C	-1.391403	0.613371	0.765274
C	-1.214911	-0.82925	0.224605
O	-1.847467	-1.084654	-0.997464
C	-0.372923	1.000342	-0.323543
O	-0.1535	1.857868	-1.120863
H	2.622955	0.794746	-0.773169
H	2.959419	0.248935	0.876306
H	3.653337	-0.62138	-0.497523
H	1.38372	-1.356687	-1.229123
H	1.682317	-1.88707	0.420373
H	-0.264163	-0.422781	2.418484
H	0.455988	1.175206	1.976076
H	-2.312166	1.099243	1.077014
H	-1.399927	-1.611878	0.97223
H	-1.551153	-1.939293	-1.326378
