19

C	1.181761	1.893387	-0.47352
C	0.92707	0.706067	0.448204
C	1.565636	-0.643334	0.048852
O	2.667637	-0.954185	-0.298949
C	0.233684	-1.401241	0.193929
C	-0.431077	-0.033729	0.423536
C	-1.673467	0.243395	1.2268
C	-1.67386	0.406529	-0.277491
O	-2.295728	-0.551605	-1.082072
H	2.247934	2.137868	-0.482283
H	0.87916	1.668081	-1.500714
H	0.632948	2.781909	-0.144321
H	1.22363	0.954368	1.476709
H	-0.091327	-1.951867	-0.692876
H	0.219139	-2.080002	1.053661
H	-2.203178	-0.614633	1.629668
H	-1.713053	1.137258	1.84248
H	-1.700339	1.423738	-0.669998
H	-3.248672	-0.436823	-1.006013
