19

C	1.043047	1.729545	-0.147014
C	0.45806	0.342198	0.111615
O	-0.451136	0.346396	1.240273
C	-1.662939	-0.182636	0.662405
C	-1.170911	-1.381177	-0.183529
C	-0.494083	-0.214058	-0.977932
C	-1.7935	0.596836	-0.666603
C	1.607988	-0.624662	0.402874
O	2.492289	-0.86033	-0.379227
H	1.815929	1.660332	-0.917214
H	0.274955	2.435079	-0.46944
H	1.49974	2.120765	0.767201
H	-2.435635	-0.239523	1.426863
H	-0.542581	-2.127263	0.307733
H	-1.966747	-1.864572	-0.751554
H	-0.078738	-0.33418	-1.97636
H	-1.750241	1.685814	-0.62049
H	-2.636187	0.269669	-1.278014
H	1.564293	-1.09092	1.412013
