19

C	2.711327	-0.568423	-0.182053
C	1.317975	-0.052971	-0.524393
C	0.203369	-1.068729	-0.251008
C	-0.155165	-0.378699	1.066609
C	0.683056	0.835297	0.605475
O	-0.219607	1.801437	0.080151
C	-1.27551	1.077754	-0.556806
C	-1.133944	-0.363091	-0.062311
O	-2.277498	-1.147624	0.048899
H	3.034828	-1.341144	-0.887683
H	3.445499	0.243849	-0.214132
H	2.73331	-1.006325	0.822318
H	1.320817	0.425212	-1.511459
H	0.228514	-2.133963	-0.456443
H	-0.356515	-0.764767	2.055928
H	1.365923	1.333508	1.293164
H	-2.242087	1.488397	-0.243113
H	-1.195336	1.16919	-1.649696
H	-2.464763	-1.531283	-0.814362
