19

C	-2.728635	-0.154576	0.075769
O	-1.60617	0.672241	-0.172076
C	-0.379546	0.067068	-0.021652
C	0.242007	-0.351076	1.372218
C	1.604563	-0.214692	0.620915
C	1.498176	-1.342835	-0.432265
C	0.019003	-1.139638	-0.912142
C	0.895411	0.932719	-0.121885
O	1.1524	2.049499	-0.455247
H	-2.706767	-0.574791	1.091313
H	-3.61236	0.478713	-0.024875
H	-2.801482	-0.980161	-0.644948
H	0.088561	0.406828	2.142033
H	-0.005599	-1.34932	1.74119
H	2.547831	-0.073124	1.141555
H	2.221913	-1.223456	-1.242214
H	1.654078	-2.326336	0.019057
H	-0.059712	-0.896907	-1.974934
H	-0.602181	-2.017185	-0.715333
