19

O	-2.527013	-0.794814	0.121511
C	-1.327805	-0.12086	0.021683
C	-0.524624	0.345365	1.242084
C	0.281017	0.810606	-0.017726
C	-1.056923	1.309117	-0.617624
C	1.77543	0.948089	-0.043442
O	2.227629	-0.406134	0.15765
C	1.187597	-1.380438	-0.129494
C	0.012361	-0.572292	-0.664455
H	-2.842781	-0.9954	-0.766242
H	-0.97331	1.140705	1.842001
H	-0.076742	-0.423154	1.871437
H	-1.544605	2.153371	-0.124893
H	-1.111124	1.381552	-1.707565
H	2.133009	1.339134	-1.007678
H	2.197481	1.558136	0.761419
H	1.571806	-2.084285	-0.875554
H	0.97599	-1.942855	0.786876
H	-0.01697	-0.557136	-1.759246
