19

O	1.6944	-1.235975	0.924809
C	0.920048	-0.309385	0.254117
C	1.162237	0.558192	-0.999468
C	0.395359	1.70792	-0.351113
C	0.059377	0.801923	0.888619
C	-1.418243	0.415118	1.07894
C	-1.803203	-0.690251	0.078258
O	-1.129786	-0.530476	-1.170406
C	0.259106	-0.659811	-1.027982
H	2.361987	-0.761272	1.433002
H	2.020073	0.63659	-1.656331
H	1.037177	2.549413	-0.080745
H	-0.467749	2.077404	-0.911182
H	0.489562	1.208562	1.807249
H	-1.603845	0.054495	2.097022
H	-2.045727	1.30215	0.936341
H	-1.558162	-1.676016	0.499967
H	-2.872315	-0.676649	-0.147988
H	0.673997	-1.525303	-1.540779
