19

O	2.22713	-1.006648	-0.464502
C	1.016195	-0.839714	0.264117
C	1.179498	0.426201	1.116203
C	0.892006	1.584956	0.139108
C	-0.243153	1.068346	-0.760822
C	-1.66774	1.04206	-0.118763
C	-1.546528	-0.484051	0.003683
O	-2.243716	-1.342697	0.46324
C	-0.164316	-0.500102	-0.67362
H	2.129723	-1.774726	-1.036317
H	0.800294	-1.729298	0.871167
H	0.447265	0.408324	1.931709
H	2.174583	0.472276	1.563693
H	0.63442	2.518372	0.648978
H	1.782362	1.773402	-0.467979
H	-0.222947	1.500047	-1.761385
H	-1.793569	1.575297	0.829357
H	-2.479363	1.345021	-0.788033
H	-0.135854	-1.080134	-1.600521
