19

C	-2.456693	0.206311	0.907861
C	-1.699898	0.122126	-0.401459
O	-0.996924	-1.159165	-0.574346
C	0.227408	-0.477603	-0.968805
C	1.547093	-0.577289	-0.162406
O	1.265154	-1.189212	1.079553
C	1.895022	0.946692	0.007054
C	0.516854	1.603224	0.105137
C	-0.357342	0.812013	-0.503856
H	-2.907083	1.197967	1.024235
H	-3.257919	-0.538733	0.930204
H	-1.775707	0.018476	1.741082
H	-2.368081	0.287305	-1.258322
H	0.410194	-0.609273	-2.044309
H	2.337391	-1.121264	-0.700403
H	2.07255	-1.174404	1.602949
H	2.497412	1.111191	0.908629
H	2.491549	1.31201	-0.840439
H	0.319195	2.490897	0.693558
