19

O	-2.447737	-1.488861	-0.065591
C	-1.46617	-0.538748	0.317711
C	-1.700429	0.842486	-0.302045
C	-0.580076	1.802675	0.108235
O	0.69884	1.300625	-0.246535
C	0.986578	0.064274	0.39877
C	-0.042937	-1.016368	0.004546
C	2.349443	-0.330658	0.057202
C	3.460432	-0.695638	-0.216183
H	-2.395292	-1.595951	-1.021945
H	-1.576607	-0.457403	1.407434
H	-1.707718	0.751682	-1.396695
H	-2.67503	1.235304	0.006119
H	-0.67585	2.766215	-0.398788
H	-0.624387	1.988622	1.195496
H	0.929509	0.212405	1.492985
H	0.056708	-1.206739	-1.071517
H	0.171541	-1.950659	0.531452
H	4.447258	-1.005722	-0.456951
