19

C	2.726585	-0.192879	-0.343059
C	1.231989	-0.026935	-0.576223
C	0.546039	0.999552	0.367803
C	-0.805841	1.492816	-0.160158
C	-1.633878	0.302277	-0.63966
O	-2.142389	-0.59123	0.359344
C	-1.048353	-1.032143	-0.434844
C	0.329947	-1.001768	0.226016
O	0.303885	-0.067989	1.32875
H	3.282679	0.66786	-0.72991
H	2.941833	-0.285348	0.725654
H	3.106618	-1.08824	-0.846453
H	1.001159	0.067548	-1.642652
H	1.160082	1.802166	0.788176
H	-1.34165	2.035247	0.626629
H	-0.651513	2.187642	-0.994983
H	-2.322466	0.477293	-1.464789
H	-1.256773	-1.850531	-1.123455
H	0.70913	-1.985408	0.51777
