19

C	-1.695529	1.705045	-0.424045
C	-0.316432	1.0857	-0.430555
C	0.318093	0.60041	0.844416
C	1.831526	0.492655	0.921034
C	2.203539	-0.24085	-0.388634
O	1.051976	-0.98422	-0.79606
C	-0.091162	-0.414143	-0.21125
C	-1.181431	-1.393896	-0.019735
O	-2.224361	-1.175678	0.553002
H	-2.353481	1.195849	0.281579
H	-1.631806	2.763293	-0.147198
H	-2.156374	1.644847	-1.415264
H	0.36207	1.500607	-1.172834
H	-0.264508	0.661212	1.757117
H	2.337737	1.459732	0.995255
H	2.109588	-0.100452	1.797799
H	2.47859	0.476898	-1.172629
H	3.033887	-0.942764	-0.272045
H	-0.948257	-2.389569	-0.45471
