19

C	-2.471417	-1.217488	3e-06
C	-1.105216	-0.619633	-9.2e-05
C	0.105028	-1.178312	-0.000168
C	1.178374	-0.118273	1.9e-05
C	2.038251	-0.151241	-1.268732
C	2.038334	-0.15153	1.268694
O	0.427266	1.117955	0.000219
C	-0.914634	0.858995	5.1e-05
O	-1.747859	1.723085	-3.7e-05
H	-3.034408	-0.887225	0.879544
H	-3.038316	-0.878106	-0.873471
H	-2.434684	-2.309222	-0.005505
H	0.340528	-2.236015	-0.000436
H	2.739722	0.687505	-1.268388
H	2.610744	-1.082564	-1.317848
H	1.40899	-0.080888	-2.159333
H	2.739023	0.687869	1.268876
H	1.409131	-0.082425	2.159433
H	2.611693	-1.08236	1.317029
