19

C	-2.502346	0.120882	0.295266
C	-1.233807	0.030777	-0.548521
O	-0.609521	-1.247066	-0.317338
C	0.748616	-1.164136	0.044741
C	0.906035	-0.371437	1.35701
C	0.769343	1.042612	0.81975
C	1.182129	0.927161	-0.627715
O	1.483425	-0.423092	-0.918426
C	-0.261787	1.175794	-0.295232
H	-3.132072	-0.755239	0.116997
H	-2.261959	0.163677	1.361807
H	-3.07505	1.01728	0.033841
H	-1.516291	0.052407	-1.611326
H	1.128627	-2.185737	0.055499
H	0.144282	-0.668091	2.080693
H	1.896906	-0.52636	1.796578
H	1.030282	1.898883	1.42885
H	1.808055	1.627952	-1.164426
H	-0.663115	2.166577	-0.484197
