19

C	1.957185	0.933838	0.281929
C	2.029851	-0.629244	0.292849
C	0.567105	-0.621525	-0.133827
O	-0.153257	-1.606061	-0.846155
C	-0.633753	-1.215398	0.452327
C	-1.88733	-0.362589	0.493997
O	-1.797027	0.81873	-0.281128
C	-0.636476	1.590016	0.001515
C	0.607254	0.859237	-0.502916
H	1.827601	1.349999	1.284708
H	2.780028	1.454507	-0.209432
H	2.675087	-1.018339	-0.50025
H	2.288557	-1.123506	1.232324
H	-0.553393	-1.986459	1.218958
H	-2.74717	-0.916576	0.103528
H	-2.091649	-0.116303	1.551628
H	-0.788269	2.555894	-0.487923
H	-0.554834	1.768321	1.087805
H	0.743297	1.005107	-1.578334
