19

O	-0.259624	1.845652	-0.991244
C	-0.114715	0.770417	-0.071691
C	1.201941	0.850351	0.738609
C	1.716596	-0.593013	0.711378
O	1.36838	-1.070525	-0.581053
C	0.069328	-0.553825	-0.884537
C	-1.046455	-1.447378	-0.408827
C	-1.822264	-0.854217	0.49583
C	-1.396304	0.561332	0.790236
H	-0.341648	2.660758	-0.485115
H	1.892807	1.497647	0.190561
H	1.072625	1.245281	1.749922
H	2.800934	-0.678239	0.819202
H	1.24229	-1.197802	1.500629
H	0.044371	-0.368898	-1.962606
H	-1.161159	-2.459835	-0.778583
H	-2.682309	-1.308874	0.977265
H	-2.162419	1.282821	0.479429
H	-1.224297	0.724127	1.861682
