19

O	-2.541792	0.380315	0.43442
C	-1.768606	-0.427399	-0.444953
C	-0.340491	-0.55218	0.005992
C	0.276606	-1.722671	0.7164
C	0.797327	-1.320444	-0.64627
C	1.673117	-0.036047	-0.664208
C	1.881218	0.570861	0.711409
C	0.559851	0.724769	0.024442
O	-0.009308	1.96179	-0.275673
H	-2.182439	1.270193	0.342366
H	-2.243445	-1.414026	-0.46971
H	-1.800895	-0.020287	-1.46759
H	0.864536	-1.623079	1.622182
H	-0.336258	-2.620694	0.704831
H	0.732443	-1.986174	-1.497751
H	2.296219	0.245648	-1.502798
H	2.037421	-0.015128	1.611367
H	2.480927	1.477193	0.67279
H	0.08615	2.52818	0.497452
