19

C	-0.345048	2.142504	-0.059709
C	-0.254434	0.652639	0.120133
C	-1.363369	-0.354945	0.519401
O	-2.409492	-0.604392	-0.393302
C	-0.130934	-1.246209	0.335002
C	0.727324	-0.150028	1.05145
C	2.08226	-0.142776	0.354954
O	1.683146	-0.311727	-1.014432
C	0.272498	-0.402314	-0.909429
H	-1.125387	2.399561	-0.785287
H	-0.580549	2.650356	0.882545
H	0.599403	2.550031	-0.436025
H	-1.737503	-0.26589	1.548506
H	-3.082552	0.072372	-0.272988
H	-0.055977	-2.325826	0.462473
H	0.683737	-0.031967	2.134962
H	2.629556	0.800658	0.476785
H	2.735043	-0.968826	0.664353
H	-0.184781	-0.544744	-1.884261
