19

C	1.915508	0.966929	0.496676
C	1.642396	0.141627	-0.735438
C	1.435254	-1.326622	-0.339267
C	0.248688	-0.891931	0.567317
O	-0.975425	-1.351275	0.009098
C	-2.011314	-0.41352	0.166015
O	-1.775437	0.781229	-0.528909
C	-0.670292	1.491425	0.028417
C	0.503829	0.575068	0.190835
H	2.441606	0.536788	1.347285
H	2.15352	2.011352	0.314477
H	1.888736	0.503597	-1.726457
H	1.063557	-1.956066	-1.148657
H	2.280779	-1.818319	0.151727
H	0.294555	-1.149788	1.636344
H	-2.907265	-0.862794	-0.266425
H	-2.173626	-0.199282	1.240357
H	-0.455466	2.326931	-0.644839
H	-0.96391	1.910084	1.007344
