19

C	3.719847	-0.27378	0.084831
C	2.319186	0.014434	-0.187592
C	1.17005	0.280178	-0.441225
C	-0.236066	0.552586	-0.694647
O	-0.74622	1.695248	0.034758
C	-1.461633	0.855297	0.966095
C	-1.229758	-0.396756	0.079781
C	-2.434743	-0.818582	-0.740872
O	-0.693163	-1.537096	0.683838
H	3.947071	-1.330918	-0.090129
H	4.376235	0.319401	-0.560864
H	3.977816	-0.044598	1.124293
H	-0.426975	0.655572	-1.769471
H	-0.95627	0.792472	1.939094
H	-2.495159	1.188622	1.110089
H	-2.135122	-1.533948	-1.512276
H	-3.175257	-1.301505	-0.095998
H	-2.899555	0.047802	-1.219583
H	0.220978	-1.338383	0.927846
