19

O	-2.544468	-0.678363	-0.363647
C	-1.516665	-0.053766	0.398654
C	-1.036397	1.233628	-0.31916
C	0.234381	1.841789	0.23236
C	1.432202	1.268873	0.104444
C	1.611615	-0.036738	-0.59248
O	2.061453	-1.155933	0.187399
C	0.711217	-1.165407	-0.294223
C	-0.369879	-1.021772	0.761202
H	-2.19212	-0.872575	-1.238935
H	-2.01438	0.223143	1.334329
H	-0.877197	0.97435	-1.374479
H	-1.853882	1.959018	-0.305737
H	0.152011	2.79362	0.751185
H	2.325641	1.746845	0.498671
H	2.081482	0.007054	-1.577971
H	0.537429	-1.897206	-1.084689
H	-0.814507	-1.994794	0.992955
H	0.120801	-0.664734	1.669878
