19

O	2.233986	-1.17925	0.102157
C	1.191604	-0.474522	-0.537854
C	1.301515	1.117587	-0.458215
C	-0.045489	1.505097	0.240915
C	-0.114927	0.407505	1.319611
C	-0.202492	-0.544452	0.063436
C	-1.535835	-1.288864	-0.005359
O	-2.211857	-0.003653	-0.197661
C	-0.957784	0.606312	-0.626272
H	2.214327	-0.963261	1.040353
H	1.212799	-0.821024	-1.574238
H	2.167953	1.40665	0.143402
H	1.410117	1.569607	-1.448531
H	-0.20102	2.566099	0.445996
H	0.742902	0.302935	1.991673
H	-1.039973	0.409329	1.892697
H	-1.661636	-1.932602	-0.885848
H	-1.887831	-1.806184	0.892319
H	-0.954217	0.759689	-1.711369
