19

C	-0.376543	2.081287	0.421145
C	-0.213589	0.813659	-0.420827
C	-1.386066	-0.170171	-0.223065
O	-2.540219	0.151118	-0.123642
C	-0.854923	-1.611959	-0.177658
C	0.628816	-1.438826	0.029299
O	0.931794	-0.636868	1.181794
C	1.020644	-0.023595	-0.120128
C	2.387854	0.433386	-0.547406
H	0.363871	2.839565	0.151037
H	-1.375249	2.497387	0.268337
H	-0.2607	1.844993	1.482627
H	-0.210485	1.082217	-1.488692
H	-1.349201	-2.176072	0.617935
H	-1.078555	-2.113013	-1.128399
H	1.32251	-2.252461	-0.168688
H	2.652932	1.377084	-0.059066
H	3.141813	-0.310697	-0.27832
H	2.423305	0.594312	-1.630143
