19

C	3.10416	-0.059858	0.005214
C	1.633624	-0.020681	-0.374504
C	0.923146	1.239387	0.119211
O	-0.466855	1.195735	-0.169138
C	-1.078376	0.046595	0.413102
C	-0.372027	-1.224104	-0.09221
O	1.008688	-1.167279	0.202096
C	-2.496677	0.038309	0.081705
C	-3.664707	-0.022474	-0.191115
H	3.64385	0.775505	-0.451067
H	3.222064	-0.001316	1.091607
H	3.556461	-0.993998	-0.337073
H	1.52142	-0.068605	-1.47112
H	1.086478	1.344528	1.20516
H	1.311283	2.130936	-0.381779
H	-0.955116	0.087544	1.509425
H	-0.773026	-2.110186	0.406718
H	-0.543609	-1.313854	-1.176037
H	-4.699326	-0.061242	-0.427927
