19

C	1.242102	0.106123	1.231568
C	1.782037	-0.692672	0.033859
O	1.861985	0.591586	-0.732797
C	0.533539	0.584583	-0.071909
C	-0.613474	1.523788	-0.251125
C	-1.83577	0.739357	0.305746
O	-1.983634	-0.561322	-0.246275
C	-0.919131	-1.469101	0.063645
C	0.344127	-0.869369	-0.537298
H	0.665848	-0.413831	1.998875
H	1.944456	0.826578	1.651873
H	2.648943	-1.35029	-0.03128
H	-0.50152	2.474339	0.281126
H	-0.759629	1.732243	-1.316271
H	-1.754107	0.677204	1.403388
H	-2.762301	1.268137	0.068667
H	-0.851889	-1.621765	1.15044
H	-1.201882	-2.420255	-0.394484
H	0.344695	-0.950718	-1.626664
