19

O	-3.141724	-0.435671	-0.303374
C	-2.176581	-0.039144	0.660077
C	-0.803498	0.113233	0.085837
C	0.138689	-0.996993	-0.443996
C	1.324705	-0.107593	0.008424
C	2.666612	0.092551	-0.623001
C	2.55381	-0.564542	0.736484
C	0.346787	0.947648	0.485169
O	-0.476392	1.306598	-0.63669
H	-2.892416	-1.30518	-0.632786
H	-2.510583	0.928964	1.0442
H	-2.139999	-0.745928	1.504749
H	0.071321	-1.93272	0.119627
H	0.053018	-1.197589	-1.514994
H	2.924881	-0.534985	-1.469668
H	3.065257	1.100131	-0.6773
H	2.737864	-1.631749	0.808759
H	2.875408	0.000425	1.606033
H	0.457029	1.680254	1.277929
