19

C	0.604243	-1.276404	-0.898971
C	-0.75683	-1.249335	-0.189699
O	-1.600448	-0.183759	-0.688785
C	-1.165877	0.693886	0.371795
C	-0.150137	1.718447	-0.119031
O	1.005089	1.137681	-0.710023
C	1.401114	-0.143621	-0.210618
C	1.014007	-0.31112	1.269601
C	-0.499268	-0.481031	1.139044
H	1.104395	-2.237638	-0.727481
H	0.507228	-1.1187	-1.975458
H	-1.286185	-2.205497	-0.179575
H	-2.01146	1.199285	0.853357
H	-0.602838	2.355545	-0.886448
H	0.128373	2.366167	0.729338
H	2.475554	-0.211289	-0.398433
H	1.48069	-1.208028	1.690727
H	1.31375	0.543054	1.883779
H	-1.030137	-0.819207	2.027931
