19

C	-1.486645	1.419789	0.562722
C	-0.61732	0.46109	-0.234848
C	0.568325	1.141218	-0.971812
C	1.685935	0.328914	-0.239811
C	1.271932	0.100544	1.266177
C	0.17727	-0.641195	0.484193
C	-1.063104	-1.507063	0.27301
O	-1.476008	-0.595901	-0.790998
O	1.185319	-1.006094	-0.50543
H	-2.093892	0.893402	1.305701
H	-0.894074	2.183138	1.075895
H	-2.171734	1.932508	-0.12099
H	0.617026	0.921348	-2.039675
H	0.592049	2.223767	-0.822476
H	2.726069	0.490524	-0.523969
H	2.000626	-0.547128	1.754161
H	0.988168	0.942401	1.901846
H	-0.872479	-2.518192	-0.094527
H	-1.784599	-1.525596	1.097667
