19

O	3.228447	0.422323	-0.164895
C	2.338157	-0.383368	-0.077147
C	1.155382	-0.264088	0.860921
C	-0.142415	-0.096867	0.081726
C	-0.381625	1.248403	-0.672662
C	-1.764892	1.404614	0.0335
C	-1.560224	0.038519	0.721055
O	-2.058388	-1.064723	-0.062769
C	-0.757785	-1.316354	-0.637239
H	2.323726	-1.289743	-0.727147
H	1.101059	-1.177127	1.470006
H	1.327941	0.589593	1.523531
H	0.339954	2.024175	-0.406651
H	-0.405903	1.166586	-1.762468
H	-1.799254	2.242927	0.734428
H	-2.644661	1.443729	-0.61168
H	-1.791311	-0.06906	1.784984
H	-0.360994	-2.287952	-0.31047
H	-0.770605	-1.289091	-1.734147
