19

C	2.854792	-0.605167	-0.067381
O	1.917	0.381829	-0.466099
C	0.79366	0.488984	0.37594
C	0.025891	1.789229	0.082084
C	-1.409582	1.35032	-0.046953
C	-1.579846	0.019391	-0.017729
C	-2.831564	-0.782913	-0.160257
C	-0.257625	-0.628691	0.15656
O	-0.030639	-1.819046	0.128291
H	2.424003	-1.610557	-0.090463
H	3.688918	-0.544692	-0.770633
H	3.230552	-0.402902	0.948398
H	1.103068	0.451115	1.434587
H	0.158425	2.55193	0.857021
H	0.397296	2.221618	-0.854353
H	-2.215134	2.068929	-0.166271
H	-3.004173	-1.394678	0.732159
H	-3.705728	-0.147651	-0.323116
H	-2.742462	-1.482296	-0.998444
