19

C	-4.024542	-0.48214	-0.356556
C	-2.924415	0.471398	0.07591
O	-1.673857	-0.13203	-0.195638
C	-0.577658	0.675809	0.158683
C	0.68613	-0.066373	-0.182041
O	1.216613	-0.949189	0.801628
C	1.957047	0.245823	0.502339
C	3.227195	0.101664	-0.156742
C	4.298032	0.00276	-0.693249
H	-3.946505	-1.427863	0.186801
H	-5.007313	-0.045142	-0.156287
H	-3.949735	-0.694502	-1.42675
H	-3.006444	1.430771	-0.463366
H	-3.00868	0.699293	1.151868
H	-0.601954	1.631948	-0.394416
H	-0.58494	0.911517	1.235638
H	0.73775	-0.447364	-1.201466
H	1.932971	0.987851	1.300707
H	5.242071	-0.090409	-1.170717
