19

C	-0.819096	0.943507	0.510659
C	-1.848472	0.364929	-0.441356
C	-3.20996	0.029869	-0.008845
O	-2.232437	-0.993395	-0.212881
C	0.568658	0.450916	0.227606
C	1.642372	1.148459	-0.133735
C	2.824058	0.236672	-0.295849
O	2.331485	-1.068466	-0.006777
C	0.950101	-1.006362	0.335925
H	-0.847112	2.037348	0.443839
H	-1.113365	0.670134	1.532814
H	-1.690789	0.605521	-1.493984
H	-3.498916	0.198847	1.027928
H	-4.028523	0.044293	-0.72671
H	1.693593	2.219898	-0.286045
H	3.241124	0.260661	-1.31575
H	3.647466	0.490727	0.391966
H	0.364337	-1.646431	-0.339393
H	0.793831	-1.39406	1.356166
