19

C	3.061007	-0.364438	0.107652
C	1.584559	-0.16681	-0.009664
C	0.649433	-1.120712	-0.110011
C	-0.703263	-0.529185	-0.186057
C	-1.969447	-1.205581	-0.464271
O	-1.649077	-0.81975	0.882182
C	-0.497087	0.971449	-0.458223
O	-1.479609	1.766874	0.153943
C	0.964743	1.21725	-0.000835
H	3.442841	0.08705	1.031976
H	3.332134	-1.423477	0.105236
H	3.589396	0.128759	-0.717987
H	0.830092	-2.189261	-0.096752
H	-2.780583	-0.64203	-0.924484
H	-1.990416	-2.280149	-0.6415
H	-0.557399	1.141515	-1.540956
H	-1.848797	1.219552	0.863754
H	1.49544	1.922963	-0.649532
H	0.977102	1.646244	1.009705
