19

C	-2.504934	0.174241	-0.11531
C	-1.670402	-1.134068	-0.066684
C	-0.289895	-0.704708	0.454132
O	0.768994	-1.381565	-0.228538
C	1.998248	-0.752529	0.027318
O	2.052574	0.571537	-0.439457
C	1.10914	1.412463	0.23134
C	-0.244728	0.780853	0.169781
C	-1.44654	1.255327	-0.144691
H	-3.170808	0.214842	-0.984282
H	-3.149386	0.276523	0.768574
H	-2.131932	-1.918957	0.536174
H	-1.526016	-1.525806	-1.077586
H	-0.17436	-0.896346	1.536885
H	2.212682	-0.774654	1.114444
H	2.762262	-1.309645	-0.518133
H	1.425304	1.548629	1.281123
H	1.144479	2.386235	-0.263118
H	-1.670103	2.289923	-0.385431
