19

C	-1.66483	1.577696	0.473931
C	-0.595903	0.601539	0.047484
C	0.748716	1.133992	-0.418709
C	1.784124	0.043729	-0.095559
O	2.907341	-0.000665	-0.522574
C	1.149644	-0.979118	0.861609
C	-0.337422	-0.707812	0.803963
C	-0.990043	-0.73875	-0.547366
O	-2.334066	-1.121757	-0.550708
H	-1.928118	2.262241	-0.341969
H	-2.572817	1.050817	0.776899
H	-1.326842	2.190343	1.317459
H	0.799716	1.394085	-1.481368
H	1.027039	2.037411	0.141494
H	1.447999	-1.992589	0.575427
H	1.552053	-0.797591	1.866705
H	-0.969181	-0.970678	1.644878
H	-0.406831	-1.118705	-1.390851
H	-2.774928	-0.663615	-1.27453
