19

C	1.860793	-0.902843	0.222012
C	2.117233	0.324687	-0.62316
C	1.199539	1.265608	-0.414242
C	0.197277	0.844051	0.640275
C	-1.270074	1.22331	0.410016
O	-1.877135	0.421868	-0.590261
C	-1.743457	-0.934304	-0.266518
O	-0.410272	-1.359646	-0.276111
C	0.40858	-0.696624	0.688584
H	1.951135	-1.84571	-0.326229
H	2.550904	-0.952871	1.075603
H	2.965891	0.408809	-1.292212
H	1.172757	2.2423	-0.885155
H	0.49199	1.273389	1.610661
H	-1.829437	1.117513	1.355324
H	-1.361817	2.26258	0.08066
H	-2.202268	-1.12861	0.723832
H	-2.262775	-1.505421	-1.038806
H	0.203534	-1.11307	1.685506
