19

C	2.842815	-0.488756	-0.701333
C	1.685145	-0.512242	0.289018
C	1.245435	0.904158	0.808756
C	-0.109547	0.681237	0.152036
O	-0.832702	1.702667	-0.38794
C	-0.766257	-0.589488	0.74861
C	-2.154743	-0.795667	0.327838
O	-2.64175	-0.33287	-0.691691
C	0.302154	-0.669894	-0.363463
H	2.999376	-1.476164	-1.148768
H	2.651854	0.220957	-1.513849
H	3.77304	-0.19135	-0.205973
H	1.885415	-1.2395	1.084529
H	1.246043	1.078967	1.888258
H	1.801749	1.704795	0.314961
H	-1.607537	1.297444	-0.817391
H	-0.513894	-0.948793	1.744396
H	-2.781071	-1.401713	1.014284
H	0.070624	-1.179112	-1.292167
