19

C	-2.364254	0.457487	0.637324
C	-1.216952	-0.534303	0.536631
C	-1.147668	-1.399786	-0.739167
O	0.132847	-0.84626	-1.119668
C	0.188862	-0.013634	0.08129
C	1.371235	-0.501141	0.932427
O	2.565733	-0.474499	0.190038
C	0.300495	1.400715	-0.243596
C	0.380007	2.575367	-0.486121
H	-2.221931	1.144016	1.477461
H	-2.451784	1.058139	-0.27222
H	-3.310165	-0.072635	0.79176
H	-1.139541	-1.118134	1.458229
H	-1.095471	-2.483962	-0.587426
H	-1.91654	-1.179783	-1.489605
H	1.507114	0.146324	1.804622
H	1.136457	-1.517435	1.289506
H	2.369092	-0.929315	-0.639288
H	0.463775	3.610623	-0.708722
