19

O	2.091396	-0.677322	-0.000395
C	0.710166	-0.487102	0.000284
C	-0.042727	-0.980316	1.258856
C	-1.366612	-0.131824	1.257426
C	-1.239699	0.76926	-0.00033
C	-1.366589	-0.132651	-1.257475
C	-0.043541	-0.982108	-1.257437
C	0.268291	0.980456	-0.000452
O	0.984506	1.946003	-0.000798
H	2.483969	0.208893	0.000342
H	-0.229655	-2.056594	1.22189
H	0.563199	-0.77671	2.145468
H	-2.262741	-0.755616	1.203221
H	-1.443303	0.474469	2.16389
H	-1.860431	1.663263	-0.000425
H	-2.26338	-0.755497	-1.20364
H	-1.442085	0.473296	-2.164314
H	-0.231303	-2.058157	-1.217815
H	0.56278	-0.781072	-2.144302
