19

O	-2.659492	-0.939929	-0.256264
C	-1.554016	-0.33466	0.363783
C	-1.467492	1.205836	0.054099
C	0.05087	0.994136	-0.100497
C	0.913795	0.60119	1.14961
C	1.347388	-0.336167	0.004462
O	2.382723	-1.254196	-0.008788
C	1.354022	0.938968	-0.942766
C	-0.167042	-0.505602	-0.388304
H	-2.628874	-1.884599	-0.071488
H	-1.534548	-0.547402	1.438607
H	-1.969378	1.40143	-0.897241
H	-1.820647	1.9101	0.811536
H	1.644604	1.345695	1.477039
H	0.402659	0.149339	2.00185
H	2.241495	-1.878951	0.710902
H	2.140742	1.673005	-0.742961
H	1.235817	0.744484	-2.010963
H	-0.362871	-0.742294	-1.439189
