19

C	2.886783	0.373985	0.082668
C	1.644613	-0.506087	0.052917
C	0.499283	-0.273266	-0.974453
C	-0.393911	-1.135191	-0.032757
O	-1.788117	-0.97426	-0.14329
C	-2.175257	0.30915	0.28081
O	-1.327371	1.308926	-0.224299
C	0.027444	0.931525	-0.105772
C	0.399163	-0.185447	0.931077
H	2.668559	1.442583	0.017828
H	3.449617	0.208282	1.00767
H	3.54917	0.121599	-0.752294
H	1.938871	-1.560487	0.120581
H	0.54686	-0.324064	-2.062606
H	-0.179939	-2.205148	0.020803
H	-3.182329	0.498921	-0.096798
H	-2.170788	0.346634	1.383851
H	0.615684	1.847456	-0.125685
H	0.359483	-0.14112	2.020418
