19

O	-3.048748	-0.669805	-0.076406
C	-1.826613	-0.170028	0.381593
C	-1.557676	1.273028	0.10031
C	-0.756918	0.203481	-0.620548
C	0.673644	0.000302	-0.286876
C	1.541632	-1.292595	-0.333156
C	2.320149	-0.185587	0.408572
C	1.929996	0.829227	-0.687006
O	1.079235	0.164638	1.141028
H	-2.930816	-1.604247	-0.276708
H	-1.48276	-0.56011	1.338136
H	-2.304632	1.803956	-0.478222
H	-1.052233	1.850534	0.865468
H	-1.009978	0.035962	-1.663449
H	1.18573	-2.111118	0.2941
H	1.916046	-1.626138	-1.304552
H	3.23703	-0.256987	0.992557
H	1.912923	1.872745	-0.370789
H	2.339515	0.689767	-1.690854
