19

C	2.094931	-0.347117	-0.761063
C	0.822167	-0.336738	0.075404
O	1.23374	-0.479115	1.4549
C	-0.120178	-1.456457	-0.299238
C	-1.442193	-1.31534	-0.414003
C	-2.175516	-0.017523	-0.207683
C	-1.314028	1.023651	0.535828
C	0.095052	1.024769	-0.02862
O	0.61036	2.001192	-0.5167
H	1.866438	-0.201191	-1.819679
H	2.754279	0.461017	-0.43978
H	2.610075	-1.302852	-0.632533
H	0.534214	-0.949042	1.920229
H	0.344343	-2.426536	-0.464023
H	-2.046765	-2.177951	-0.685536
H	-2.478863	0.385231	-1.184389
H	-3.109228	-0.196551	0.338212
H	-1.732271	2.029165	0.461846
H	-1.256428	0.750624	1.596314
