19

O	-2.20526	0.208006	-0.488491
C	-1.144252	0.665994	0.331415
C	-0.652046	-0.435995	1.31353
C	0.491851	-1.161954	0.617329
O	0.077034	-1.390376	-0.778396
C	0.75804	-0.165673	-1.118008
C	1.624044	-0.176743	0.152618
C	1.309396	1.310549	0.397585
C	0.059783	1.119121	-0.515271
H	-1.867118	-0.591942	-0.913566
H	-1.545246	1.518809	0.888637
H	-0.313745	-0.015612	2.266924
H	-1.482495	-1.115165	1.5266
H	0.803539	-2.094089	1.093392
H	1.111705	-0.134795	-2.149448
H	2.641001	-0.565227	0.200409
H	1.14285	1.662117	1.420053
H	2.06863	1.943715	-0.069594
H	-0.214199	1.919346	-1.203503
