19

C	-1.892375	-0.559989	-0.724903
C	-1.742322	0.772521	0.107503
C	-1.156609	-0.097582	1.24877
C	-0.489273	-0.585356	-0.088298
O	0.564427	-1.466726	-0.239305
C	1.74547	-0.827441	0.254488
O	1.986303	0.442539	-0.285464
C	0.985218	1.42169	0.057907
C	-0.314943	0.88608	-0.52263
H	-2.628595	-1.276861	-0.352917
H	-1.932499	-0.455629	-1.811824
H	-2.494919	1.55176	0.203092
H	-0.538364	0.401271	1.994501
H	-1.84444	-0.802513	1.721501
H	1.680909	-0.767288	1.354869
H	2.581169	-1.461882	-0.043404
H	0.961015	1.567321	1.145972
H	1.316776	2.355168	-0.402327
H	-0.317886	1.022611	-1.608334
