19

C	-1.215569	1.966308	0.043276
C	-1.280213	0.560437	-0.519385
C	-1.727512	-0.610533	0.397137
C	-1.021845	-1.616318	-0.539662
C	-0.079102	-0.413825	-0.272967
O	-0.46184	-0.482311	1.161735
C	1.35824	-0.253032	-0.619009
C	2.401699	-0.344673	0.40984
O	2.004395	0.921337	-0.122863
H	-0.79583	1.9532	1.050349
H	-0.587068	2.606805	-0.582688
H	-2.215248	2.413099	0.080953
H	-1.690242	0.527738	-1.534509
H	-2.643293	-0.729677	0.976138
H	-0.717577	-2.55057	-0.066919
H	-1.415726	-1.749929	-1.550378
H	1.60736	-0.506975	-1.650462
H	2.102054	-0.529201	1.438492
H	3.400942	-0.676879	0.132658
