19

C	2.281757	-0.947156	-0.877227
C	1.321738	-0.10827	-0.084477
C	1.417852	0.052044	1.41275
C	0.204645	-0.621254	0.7836
C	-1.002155	0.268695	0.504362
C	-0.348656	1.473488	-0.234433
O	0.859478	1.006546	-0.817748
C	-1.982	-0.448474	-0.400782
O	-3.134806	-0.666367	-0.131609
H	2.589606	-1.824877	-0.30288
H	1.820327	-1.283924	-1.810842
H	3.178793	-0.372541	-1.129088
H	2.11199	-0.594674	1.938728
H	1.306937	1.036386	1.85472
H	0.045194	-1.681053	0.948822
H	-1.537397	0.587569	1.402798
H	-0.972795	1.882818	-1.035603
H	-0.152915	2.281925	0.482161
H	-1.546206	-0.767506	-1.376721
