19

C	-2.999357	-0.313872	-0.089458
C	-1.518257	-0.118553	-0.031403
C	-0.575971	-1.046313	-0.232353
C	0.825861	-0.527786	-0.052619
C	1.511822	-1.048138	1.222694
O	1.633848	-0.801607	-1.189191
C	0.573409	0.994653	0.049331
O	1.435852	1.81894	-0.116735
C	-0.916119	1.235607	0.281114
H	-3.469843	-0.069225	0.871403
H	-3.454285	0.349673	-0.835698
H	-3.257859	-1.344963	-0.344263
H	-0.771057	-2.08554	-0.474076
H	0.904846	-0.865392	2.115326
H	1.681342	-2.124588	1.129957
H	2.479472	-0.551961	1.351613
H	2.300583	-0.101745	-1.215998
H	-1.093172	1.551776	1.319271
H	-1.285953	2.049712	-0.353969
