19

O	-0.884895	1.980852	-0.254307
C	-0.827477	0.606675	-0.137196
C	-1.782498	-0.380822	-0.806249
C	-1.604154	-1.358904	0.400585
C	-0.675665	-0.360009	1.100237
C	0.461389	-0.036373	0.189034
C	1.737313	0.709499	0.562148
C	2.420802	-0.337241	-0.344618
O	1.158117	-0.982799	-0.633672
H	-1.774434	2.27084	-0.022666
H	-2.803714	0.00806	-0.864892
H	-1.482217	-0.738908	-1.795079
H	-2.536266	-1.533365	0.941337
H	-1.145582	-2.321229	0.15931
H	-0.623549	-0.174205	2.168193
H	1.77968	1.741856	0.21341
H	2.0136	0.667613	1.617427
H	2.890806	0.056915	-1.252646
H	3.117637	-1.018957	0.155788
