19

C	-0.735861	1.969242	-0.508504
C	-0.623035	0.572205	0.050627
C	-1.889553	-0.133081	0.579942
O	-1.628833	-1.326234	-0.192799
C	-0.430212	-0.766452	-0.753769
C	0.807071	-1.124912	0.089997
C	2.106186	-0.465731	-0.399975
O	1.834581	0.749436	0.338409
C	0.623412	0.203339	0.893703
H	-1.034167	2.677317	0.274594
H	0.225755	2.301824	-0.90761
H	-1.485883	2.01932	-1.30484
H	-1.925401	-0.332891	1.659484
H	-2.831067	0.342287	0.276041
H	-0.381993	-0.871156	-1.842335
H	0.846992	-2.127047	0.513206
H	3.026614	-0.946305	-0.04722
H	2.18906	-0.288408	-1.480183
H	0.576059	0.311778	1.981858
