19

C	2.258499	0.0	-0.236343
C	1.017094	-0.761584	-0.623968
C	1.017094	0.761583	-0.623969
C	0.025908	1.164402	0.464826
C	0.079816	1e-06	1.469598
C	0.025909	-1.164401	0.464828
O	-1.309839	-1.188692	-0.068476
C	-1.653036	-1e-06	-0.751777
O	-1.30984	1.188692	-0.068476
H	2.61738	0.0	0.786127
H	3.055825	0.0	-0.972107
H	1.013932	-1.331163	-1.546166
H	1.013931	1.331161	-1.546168
H	0.190767	2.15521	0.893325
H	0.983553	1e-06	2.082187
H	-0.792215	1e-06	2.123799
H	0.190767	-2.155209	0.893328
H	-1.202202	0.0	-1.755195
H	-2.742012	-1e-06	-0.842688
