19

C	-2.668368	-0.776203	0.21063
C	-1.38555	-0.935578	-0.619429
C	-0.25086	-0.144855	-0.054138
O	0.371973	-0.591476	1.182915
C	1.226509	-0.351368	0.062712
C	2.097167	-1.454989	-0.441223
C	1.526385	1.159285	0.112249
C	-0.009006	1.363708	-0.056512
O	-0.699171	2.313534	-0.283949
H	-3.486002	-1.357477	-0.224642
H	-2.50922	-1.121823	1.236019
H	-2.975459	0.272847	0.248132
H	-1.092298	-1.990425	-0.66909
H	-1.562424	-0.600138	-1.648515
H	2.958364	-1.597837	0.22066
H	1.542025	-2.395652	-0.483072
H	2.476425	-1.222132	-1.441114
H	1.984073	1.516474	1.037078
H	2.064446	1.559701	-0.752914
