19

O	-2.971099	-1.062804	0.297406
C	-1.604112	-1.070392	-0.106949
C	-1.074515	0.340055	0.14972
O	-1.888137	1.285252	-0.52348
C	0.34434	0.505725	-0.330221
C	1.216624	1.579387	0.244801
C	1.492995	0.125641	0.596437
C	2.646592	-0.547679	0.076914
C	3.614222	-1.115358	-0.357897
H	-3.403611	-1.843764	-0.058054
H	-1.0198	-1.807994	0.461355
H	-1.510175	-1.300302	-1.178248
H	-1.107039	0.517253	1.239866
H	-2.795807	0.983199	-0.387626
H	0.494073	0.278244	-1.381317
H	1.920124	2.073391	-0.413919
H	0.804578	2.204958	1.028944
H	1.205634	-0.173758	1.601139
H	4.469032	-1.615084	-0.740382
