19

C	3.139202	-0.579428	-0.417526
O	2.294924	0.524021	-0.151535
C	0.946187	0.223542	-0.296685
C	0.006896	1.062875	0.510446
C	-1.400085	1.241568	-0.018202
C	-1.969264	-0.180584	-0.174946
O	-2.969327	-0.468731	-0.776705
C	-1.052542	-1.176336	0.560503
C	0.218603	-0.413257	0.866264
H	3.020611	-0.93917	-1.450652
H	4.167232	-0.237809	-0.277988
H	2.941015	-1.417535	0.265748
H	0.654476	-0.069927	-1.310466
H	0.456204	1.833338	1.124998
H	-2.030427	1.779494	0.70133
H	-1.474158	1.776805	-0.969918
H	-1.564225	-1.489308	1.479733
H	-0.920711	-2.074745	-0.051125
H	0.811221	-0.673733	1.735141
