19

C	3.61417	-0.190988	-0.473084
C	2.346125	-0.444254	0.323594
O	1.329577	0.411964	-0.17061
C	0.106702	0.319592	0.53034
C	-0.746338	-0.929209	0.212945
C	-2.145596	-0.383096	-0.115808
O	-3.15014	-1.037545	-0.260127
C	-2.015424	1.092701	-0.214206
C	-0.778467	1.473014	0.116473
H	3.928315	0.851779	-0.373686
H	4.423041	-0.83465	-0.114912
H	3.448812	-0.399275	-1.533857
H	2.039882	-1.498543	0.23378
H	2.512952	-0.246316	1.395892
H	0.306186	0.383447	1.614803
H	-0.347365	-1.423133	-0.679373
H	-0.800549	-1.670341	1.013229
H	-2.840127	1.728543	-0.510081
H	-0.393668	2.486585	0.118573
