19

C	-1.965754	-0.588256	1.400262
C	-1.115985	-0.225796	0.21604
C	-1.528744	-0.489029	-1.208898
C	-0.252453	-1.100162	-0.701851
C	0.856238	-0.024958	-0.73283
C	2.17637	-0.492772	-0.177662
O	2.577909	-0.278162	0.939534
C	-0.019912	0.836645	0.239404
O	-0.442307	2.111721	-0.189379
H	-1.356228	-0.740511	2.297995
H	-2.690558	0.204716	1.618174
H	-2.529013	-1.508968	1.216302
H	-2.361502	-1.177072	-1.319054
H	-1.501069	0.304603	-1.950145
H	-0.085428	-2.170065	-0.659882
H	1.02059	0.401852	-1.730822
H	2.786042	-1.095276	-0.890102
H	0.470975	0.876968	1.21844
H	0.262808	2.74124	-0.008936
