19

C	0.56939	1.98112	-0.152105
C	0.29083	0.519746	0.188173
C	-1.106397	0.345823	0.828477
C	-2.190399	0.201166	-0.218015
O	-2.926043	-0.748329	-0.308825
C	0.8038	-0.538829	-0.856192
C	0.888978	-1.621894	0.241545
C	1.492095	-0.299663	0.777023
O	2.193516	-0.151288	-0.517962
H	0.562912	2.593135	0.757171
H	1.538555	2.086527	-0.638689
H	-0.201939	2.384663	-0.817736
H	-1.172214	-0.513868	1.496382
H	-1.324779	1.244801	1.419976
H	-2.26273	1.046451	-0.94039
H	0.55733	-0.639958	-1.914269
H	-0.028234	-2.02248	0.672061
H	1.631445	-2.394201	0.042517
H	2.070085	-0.112947	1.683834
