19

C	-2.106384	-0.620426	0.064068
C	-0.745489	-0.930039	-0.517162
O	0.229972	-1.686215	0.129211
C	1.530628	-1.055745	0.068411
O	1.566324	0.229536	-0.484263
C	0.83413	1.302942	0.135144
C	-0.434431	1.6043	-0.736706
C	-1.027387	0.42685	0.047819
C	-0.129288	0.795552	1.231303
H	-2.936502	-0.593856	-0.634902
H	-2.358523	-1.005573	1.047061
H	-0.721478	-0.998853	-1.605351
H	1.924719	-1.078121	1.094242
H	2.175363	-1.653724	-0.585073
H	1.534434	2.113873	0.353245
H	-0.860843	2.581587	-0.487294
H	-0.322887	1.499518	-1.817829
H	-0.534155	1.635213	1.804321
H	0.198833	0.012771	1.914734
