19

C	1.877361	-1.014194	-0.459667
C	1.621174	-0.142675	0.757207
C	1.475041	1.314095	0.297441
C	0.253227	0.905382	-0.595563
C	-1.100794	1.335811	-0.018748
O	-2.078237	0.319559	-0.232524
C	-1.715966	-0.860953	0.419925
O	-0.552339	-1.456409	-0.128396
C	0.490391	-0.555255	-0.211413
H	2.458531	-0.642263	-1.302324
H	2.032381	-2.064494	-0.232
H	1.870496	-0.479396	1.755462
H	1.202958	2.013623	1.091915
H	2.33707	1.719433	-0.242051
H	0.310128	1.13274	-1.6655
H	-1.008335	1.521335	1.064044
H	-1.483608	2.243734	-0.490816
H	-1.552283	-0.664358	1.495504
H	-2.525336	-1.578825	0.278044
