19

C	-1.329735	-1.158705	-0.420195
O	-1.527045	0.16674	-0.925173
C	-1.229274	1.063991	0.112571
C	0.218588	1.440171	0.287375
C	1.281675	0.970241	-0.69217
C	1.961621	-0.27394	-0.121811
O	1.053466	-1.349889	0.057451
C	-0.219078	-1.058445	0.64263
C	-0.415353	0.366355	1.166431
H	-2.261576	-1.527065	0.035942
H	-1.04557	-1.810579	-1.249129
H	-2.02054	1.770604	0.342794
H	0.397114	2.391718	0.778924
H	0.829232	0.727101	-1.659287
H	2.025328	1.755708	-0.856468
H	2.73244	-0.658226	-0.797031
H	2.448291	-0.015678	0.833323
H	-0.370932	-1.797394	1.436921
H	-0.555822	0.530985	2.22681
