19

C	3.397026	-1.057938	0.511883
C	2.667261	-0.026241	-0.371018
C	3.031119	1.417373	0.031545
C	1.218718	-0.226076	-0.327881
C	0.025868	-0.380276	-0.272416
C	-1.405837	-0.606916	-0.225421
O	-2.067334	0.627028	0.160509
C	-3.400917	0.546705	0.238433
O	-4.063565	-0.430879	0.021234
H	3.112359	-0.936305	1.561456
H	3.151907	-2.079556	0.209999
H	4.480379	-0.9241	0.431518
H	2.996154	-0.177753	-1.408579
H	4.112308	1.568158	-0.046971
H	2.53147	2.144428	-0.613614
H	2.729684	1.616271	1.064372
H	-1.799106	-0.924633	-1.197083
H	-1.670842	-1.385549	0.497891
H	-3.796554	1.530067	0.53631
