19

C	2.251619	-1.563397	0.133954
C	1.027466	-0.730614	-0.122834
C	-0.217039	-1.215201	-0.127193
C	-1.454427	-0.381271	-0.375315
O	-2.604669	-0.960493	0.231762
C	-1.266305	1.08084	0.069775
C	0.09763	1.640783	-0.311585
O	1.099455	1.628521	0.714478
C	1.239273	0.721966	-0.398939
H	2.802628	-1.185671	1.004147
H	1.994981	-2.610009	0.316715
H	2.944599	-1.524701	-0.71621
H	-0.401292	-2.27416	0.042623
H	-1.687477	-0.404094	-1.448983
H	-2.442249	-0.994993	1.181509
H	-2.071577	1.695441	-0.342551
H	-1.349987	1.123237	1.162145
H	0.107976	2.543799	-0.920882
H	2.074805	0.968298	-1.055609
