19

C	-4.610544	0.13268	-0.357786
C	-3.207417	-0.125231	-0.070877
C	-2.045928	-0.330843	0.166347
C	-0.647468	-0.60702	0.45878
O	0.130067	0.574907	0.282357
C	1.480711	0.358697	0.533771
C	2.4477	1.285978	-0.142966
C	2.36544	-0.170994	-0.556773
O	3.367592	-1.065037	-0.173809
H	-4.782013	1.199164	-0.540533
H	-4.945524	-0.413891	-1.246152
H	-5.250674	-0.166227	0.479525
H	-0.542341	-0.973029	1.493667
H	-0.270096	-1.406762	-0.197973
H	1.724573	0.029918	1.545362
H	2.03319	2.023576	-0.820812
H	3.313262	1.602849	0.428197
H	1.882783	-0.375274	-1.512657
H	4.160603	-0.858877	-0.679992
