19

O	2.855463	0.533513	-0.166606
C	1.756177	0.073033	-0.061455
C	1.083343	-1.21832	-0.554091
C	0.024671	-1.00531	0.570687
C	-1.453831	-1.214138	0.264579
O	-1.973352	-0.237803	-0.619922
C	-1.834982	1.070316	-0.088037
C	-0.366617	1.492035	-0.068153
C	0.500342	0.484357	0.72919
H	0.652609	-1.082322	-1.552303
H	1.688063	-2.127605	-0.547377
H	0.295621	-1.585924	1.457285
H	-1.62185	-2.184322	-0.214445
H	-2.027689	-1.201164	1.207318
H	-2.419111	1.731254	-0.734881
H	-2.270735	1.113878	0.924872
H	-0.024416	1.549094	-1.107781
H	-0.255892	2.495681	0.353133
H	0.671891	0.833916	1.750076
