19

O	-3.157875	-0.702086	-0.143048
C	-1.930083	-0.346942	0.457089
C	-1.719404	1.190617	0.333937
C	-0.478279	0.940281	-0.530308
C	0.508172	0.083921	0.223509
C	1.836838	-0.154691	-0.409569
C	2.945243	-0.795702	0.308959
O	2.937037	0.615718	0.087403
C	-0.687822	-0.567425	-0.425709
H	-3.215975	-1.663204	-0.154032
H	-1.853535	-0.76378	1.472531
H	-2.553256	1.61551	-0.227788
H	-1.572178	1.758121	1.257888
H	-0.168245	1.531484	-1.383874
H	0.547942	0.159718	1.310367
H	1.818948	-0.247061	-1.497802
H	2.802156	-1.106828	1.343487
H	3.701559	-1.354734	-0.240999
H	-0.588699	-1.338633	-1.18206
