19

C	-2.568908	0.059523	0.73647
C	-1.414927	0.38858	-0.222192
C	-1.027524	-0.783132	-1.104716
C	0.221283	-1.210298	-0.910346
C	0.944877	-0.40562	0.135164
O	1.581933	-1.159368	1.135071
C	1.814063	0.754561	-0.385174
O	0.713268	1.67813	-0.257851
C	-0.085903	0.720456	0.474718
H	-2.835125	0.931229	1.342813
H	-3.461734	-0.254469	0.186155
H	-2.296005	-0.755707	1.415604
H	-1.696326	1.252819	-0.83742
H	-1.724618	-1.215479	-1.816252
H	0.701894	-2.031826	-1.431734
H	1.009693	-1.90112	1.359302
H	2.637079	0.992238	0.301165
H	2.189126	0.691851	-1.412307
H	-0.183363	0.995946	1.53137
