19

O	-2.218538	-1.052455	-0.60194
C	-0.958735	-0.424758	-0.5795
C	-0.94705	1.094604	-0.188777
C	-0.827764	0.619851	1.295851
C	-0.124849	-0.64669	0.719523
C	1.364096	-0.34772	0.457341
O	2.010323	-1.414214	-0.234376
C	1.493651	0.967413	-0.283609
C	0.393526	1.653288	-0.604332
H	-2.605035	-1.016059	0.278973
H	-0.49284	-0.669246	-1.538578
H	-1.797551	1.706732	-0.491468
H	-0.258091	1.257234	1.975987
H	-1.796045	0.393457	1.753466
H	-0.241161	-1.606906	1.228766
H	1.895172	-0.297254	1.417165
H	1.671312	-1.422081	-1.136374
H	2.493066	1.301252	-0.545404
H	0.439635	2.590297	-1.150985
