19

O	-1.239785	1.78814	0.026395
C	-0.462906	0.797554	-0.627606
C	1.035581	0.930315	-0.28546
C	1.059758	0.560913	1.218886
C	0.306962	-0.759971	1.09041
C	0.646705	-1.340023	-0.283001
C	1.601734	-0.350763	-0.948785
C	-0.655601	-0.609304	-0.06876
O	-1.889659	-1.247264	-0.147694
H	-2.163931	1.588058	-0.155012
H	-0.634558	0.828911	-1.714164
H	1.499969	1.874965	-0.56504
H	2.079249	0.43988	1.599942
H	0.532495	1.295013	1.832272
H	0.077803	-1.409433	1.92575
H	0.665963	-2.408228	-0.453486
H	2.65114	-0.526776	-0.690544
H	1.512826	-0.336467	-2.040055
H	-2.378804	-1.045261	0.656622
