19

C	-1.566152	1.821708	0.027592
C	-0.433857	0.930259	-0.47427
C	0.944863	1.227688	0.150333
C	1.744604	-0.071446	0.019277
O	2.935576	-0.187469	0.139228
C	0.763025	-1.207121	-0.304503
C	-0.608861	-0.568562	-0.190259
C	-1.865655	-1.305106	-0.322373
O	-1.376319	-0.923509	0.969795
H	-1.327996	2.876047	-0.141699
H	-2.506532	1.610151	-0.490955
H	-1.730258	1.668626	1.097305
H	-0.343184	1.039541	-1.56453
H	1.48132	2.070132	-0.291779
H	0.837382	1.43686	1.22407
H	0.965951	-1.551484	-1.326504
H	0.894699	-2.059242	0.366184
H	-2.770278	-0.79318	-0.64724
H	-1.842955	-2.374142	-0.531817
