19

C	2.392525	-0.737502	-0.001049
C	2.085781	0.776368	0.00265
C	0.632423	0.316911	0.017219
O	0.984053	-1.068818	0.052417
C	-0.530112	0.903392	0.770552
C	-1.646852	-0.053295	1.167516
C	-1.944316	-0.826017	-0.137666
O	-1.522403	0.010297	-1.22171
C	-0.528172	0.874632	-0.753416
H	2.861945	-1.122585	-0.912995
H	2.930319	-1.120213	0.873031
H	2.412806	1.313827	0.895447
H	2.398934	1.325813	-0.887535
H	-0.389042	1.813591	1.345013
H	-1.365834	-0.736182	1.974076
H	-2.514901	0.526007	1.497966
H	-1.38062	-1.764294	-0.157634
H	-3.006501	-1.042871	-0.280943
H	-0.407973	1.748125	-1.386913
