19

C	1.82872	-1.31009	-0.372081
C	0.554001	-0.54804	-0.706983
C	-0.803897	-1.118755	-0.250615
O	-1.730235	-0.100264	-0.748536
C	-1.071151	1.151154	-0.550495
C	0.297264	0.755316	0.100361
O	1.324659	1.702066	0.009944
C	-0.068737	0.19275	1.467196
C	-0.736187	-0.946712	1.258438
H	2.702103	-0.694683	-0.607921
H	1.87905	-1.578754	0.685555
H	1.895935	-2.229424	-0.963047
H	0.519571	-0.34194	-1.782322
H	-1.12826	-2.080384	-0.64402
H	-0.900028	1.651106	-1.512146
H	-1.675264	1.803441	0.093375
H	1.10779	2.45078	0.574988
H	0.092212	0.714642	2.403629
H	-1.248578	-1.562942	1.985725
