19

C	-2.714393	0.466625	-0.042857
C	-1.216433	0.429479	0.088863
C	-0.442037	1.500365	-0.108275
C	1.064536	1.504517	-0.037263
C	1.650314	0.10399	0.071141
O	2.669804	-0.220337	-0.491194
C	0.825928	-0.841974	0.920349
C	-0.624348	-0.932553	0.402699
O	-0.736189	-1.805084	-0.722831
H	-3.200608	0.232248	0.91291
H	-3.070488	1.444699	-0.375902
H	-3.049072	-0.291694	-0.759298
H	-0.906755	2.453268	-0.354579
H	1.508624	1.999448	-0.907366
H	1.399261	2.080958	0.840329
H	1.286452	-1.831625	0.933241
H	0.801472	-0.444843	1.944112
H	-1.233427	-1.423232	1.170711
H	-0.265779	-1.398547	-1.459908
