19

O	0.315855	1.564036	0.088086
C	-0.079712	0.220749	-0.013837
C	1.164143	-0.646119	-0.115098
C	2.367632	-0.334966	0.666357
O	2.291441	0.012699	-0.724842
C	-1.314424	-0.109043	-0.937863
C	-1.585741	-1.340253	-0.025281
C	-1.234639	-0.179594	0.95148
C	-2.17003	0.712701	0.074366
H	1.109366	1.644632	-0.460892
H	1.035301	-1.668443	-0.457088
H	2.348412	0.509931	1.350192
H	3.075981	-1.126238	0.903166
H	-1.35412	-0.069555	-2.027616
H	-2.625575	-1.671871	0.008058
H	-0.914728	-2.198696	-0.080465
H	-1.183742	-0.219347	2.040879
H	-3.232093	0.458408	0.110941
H	-2.000548	1.786452	0.106134
