19

C	-1.565292	1.863735	-0.057659
C	-1.047048	0.468763	0.338923
C	-2.074304	-0.557766	0.171582
C	-2.909283	-1.406058	0.000324
C	0.211308	0.085925	-0.468469
C	0.844021	-1.26454	-0.059944
O	2.239221	-0.999224	-0.066968
C	2.341221	0.335076	0.346072
O	1.259511	1.031476	-0.244144
H	-2.420004	2.148638	0.560791
H	-0.768987	2.600104	0.070163
H	-1.885611	1.872412	-1.103987
H	-0.750286	0.497051	1.396933
H	-3.651814	-2.15296	-0.135891
H	-0.035077	0.101464	-1.537291
H	0.50503	-1.568438	0.942371
H	0.639811	-2.073492	-0.761896
H	2.28842	0.412506	1.448017
H	3.284929	0.753882	-0.015289
