19

C	-2.583159	-1.251364	-0.001197
O	-1.367132	-0.847688	0.604914
C	-0.436952	-0.324543	-0.305716
O	-0.86252	0.895805	-0.868146
C	-0.403234	1.948934	-0.02089
C	1.013485	1.521313	0.367369
C	0.863708	-0.01941	0.503317
C	2.024504	-0.772646	0.057446
C	2.984878	-1.388757	-0.320947
H	-2.410979	-2.037338	-0.7518
H	-3.217678	-1.651087	0.792603
H	-3.089823	-0.408646	-0.485214
H	-0.287574	-1.020565	-1.140842
H	-0.446088	2.879219	-0.591465
H	-1.049824	2.045381	0.862817
H	1.713905	1.757257	-0.437281
H	1.372213	1.986514	1.287812
H	0.64022	-0.281056	1.542432
H	3.833458	-1.935775	-0.649504
