19

C	2.116583	0.879684	-0.362193
C	1.81088	-0.602523	-0.508995
C	0.391992	-0.986535	-0.887134
C	-0.482321	-0.175245	0.093845
C	-1.874856	-0.716667	0.467216
O	-2.533158	0.348027	-0.247864
C	-1.283418	1.026103	-0.478726
O	0.334904	0.112956	1.218765
C	1.68437	0.065177	0.829295
H	3.160338	1.171551	-0.409056
H	1.431667	1.611626	-0.777964
H	2.617728	-1.288195	-0.737495
H	0.130087	-0.776139	-1.928142
H	0.24684	-2.059885	-0.719032
H	-2.139474	-1.705663	0.074609
H	-2.068533	-0.681651	1.546443
H	-1.136997	1.27098	-1.538126
H	-1.180549	1.932539	0.131275
H	2.345537	-0.102996	1.670436
