19

C	1.893978	0.554057	-0.70286
C	1.708486	-0.7679	0.141731
C	1.08528	0.11056	1.256038
C	0.475415	0.610321	-0.105305
O	-0.575673	1.492244	-0.277198
C	-1.746285	0.856426	0.262489
C	-1.925837	-0.602192	-0.201403
O	-0.811154	-1.445337	0.106656
C	0.307665	-0.853582	-0.518883
H	2.629946	1.258979	-0.312164
H	1.969506	0.442146	-1.787722
H	2.443194	-1.560429	0.258484
H	0.414243	-0.395978	1.947317
H	1.758833	0.805261	1.76244
H	-1.704823	0.889373	1.360485
H	-2.60317	1.448811	-0.069819
H	-2.79742	-1.031791	0.300714
H	-2.109492	-0.61558	-1.287982
H	0.301586	-1.062194	-1.598258
