19

C	-2.273199	-0.604187	0.066285
C	-0.842786	-0.127263	0.011081
C	-0.098655	0.201797	1.317135
C	1.152649	0.722738	0.581333
C	0.473881	1.74806	-0.359107
O	-0.785564	1.138932	-0.699608
C	1.484608	-0.455231	-0.343367
O	1.077981	-1.751278	0.113337
C	0.182055	-1.008728	-0.727356
H	-2.331547	-1.567262	0.582135
H	-2.9011	0.118114	0.595324
H	-2.675639	-0.729626	-0.943714
H	-0.615429	0.979463	1.883661
H	0.095246	-0.666077	1.943885
H	1.967815	1.123005	1.184241
H	0.292851	2.70622	0.143716
H	1.051151	1.938725	-1.272449
H	2.347564	-0.431696	-1.002216
H	-0.041564	-1.435203	-1.700446
