19

C	0.20508	0.042986	1.452483
C	0.094447	1.210088	0.446184
C	-1.358777	1.208695	-0.079254
C	-1.714793	-0.15636	-0.708822
O	-1.221544	-1.290703	0.007438
C	0.117255	-1.154012	0.489857
C	1.037191	-0.725182	-0.65497
O	2.184794	0.028734	-0.242301
C	1.022027	0.744296	-0.676346
H	1.158641	0.053256	1.980656
H	-0.612602	0.027352	2.175949
H	0.366742	2.182253	0.865893
H	-2.030699	1.429388	0.757328
H	-1.519148	1.988177	-0.83402
H	-2.799955	-0.288209	-0.747129
H	-1.34961	-0.184206	-1.744926
H	0.368813	-2.11641	0.940505
H	1.157487	-1.341678	-1.540946
H	1.139744	1.322761	-1.589194
