19

C	2.768682	-0.335108	0.020276
O	1.667625	0.341696	-0.568562
C	0.455367	-0.010102	-0.026421
C	-0.029892	0.510776	1.316066
C	-0.832984	0.782053	0.073783
O	-1.17355	2.078619	-0.250777
C	-1.634667	-0.456502	-0.439364
C	-1.450087	-1.715216	0.369868
C	-0.344785	-1.25089	-0.541948
H	2.688355	-1.423801	-0.105413
H	3.668511	0.016937	-0.489001
H	2.845798	-0.111247	1.092916
H	-0.365791	-0.102706	2.146064
H	0.52558	1.39671	1.612571
H	-1.131788	2.170571	-1.209705
H	-2.41162	-0.357286	-1.187984
H	-1.354624	-1.702483	1.449496
H	-2.010274	-2.570894	0.001316
H	0.003451	-1.828392	-1.389108
