19

C	-0.225079	-1.221075	1.803079
C	-0.052852	-0.260321	0.646028
C	1.374685	0.00831	0.077438
O	1.848952	-0.771277	-0.983736
C	1.01151	1.514162	-0.127068
C	-0.330389	1.300803	0.630961
C	-1.541806	1.096652	-0.316961
C	-1.06328	-0.347055	-0.513129
O	-1.278113	-1.199497	-1.332336
H	-1.245391	-1.206012	2.201262
H	-0.009009	-2.244224	1.477282
H	0.460404	-0.974107	2.620656
H	2.10985	-0.09658	0.882851
H	1.112524	-0.972564	-1.573818
H	1.709867	2.216184	0.332319
H	0.885288	1.793816	-1.177513
H	-0.490945	1.873844	1.542294
H	-2.49364	1.102967	0.228379
H	-1.642387	1.724009	-1.207222
