19

C	2.957194	-0.122344	-0.69092
C	1.523634	-0.489807	-0.325065
C	1.225273	-0.43897	1.216207
C	0.244219	0.711455	0.973863
C	0.523172	0.66012	-0.524742
C	-0.873322	0.358017	0.000733
O	-1.774485	1.398042	-0.203177
C	-1.516105	-0.970264	-0.06919
O	-2.70677	-1.076	-0.284524
H	3.074308	-0.017431	-1.774852
H	3.248254	0.827667	-0.229123
H	3.655603	-0.893462	-0.348645
H	1.255084	-1.429717	-0.819142
H	0.834492	-1.342727	1.692759
H	2.104463	-0.112872	1.778073
H	0.07297	1.572383	1.608376
H	0.608097	1.475774	-1.233678
H	-2.627364	0.954639	-0.339922
H	-0.880265	-1.859832	0.08246
