19

C	2.888861	-0.870209	0.018208
C	1.490119	-0.369919	-0.060036
C	0.363796	-0.880779	-0.565319
C	-0.659199	0.234103	-0.268824
C	-2.13489	-0.004624	-0.437097
O	-2.558654	-1.10013	0.354865
C	0.125855	1.504832	-0.721319
C	0.97018	0.985663	0.478107
O	-0.287813	0.59338	1.121275
H	3.586504	-0.190862	-0.48839
H	3.227027	-0.944071	1.059645
H	2.986222	-1.857459	-0.441473
H	0.167909	-1.823809	-1.054147
H	-2.684188	0.915706	-0.186196
H	-2.358914	-0.25688	-1.479547
H	-2.20747	-0.947615	1.240327
H	0.574074	1.514697	-1.716695
H	-0.403519	2.434249	-0.495062
H	1.615756	1.61564	1.090104
