19

O	2.820105	0.680832	-0.061797
C	2.06803	-0.524453	-0.114922
C	0.641063	-0.162923	-0.480791
C	-0.343257	-1.319087	-0.291183
C	-1.744735	-0.754863	-0.15013
O	-2.026528	0.523897	-0.675279
C	-1.22375	1.457822	0.064657
C	-0.107735	0.604822	0.660619
C	-0.843927	-0.71574	1.031308
H	3.724701	0.461669	0.178982
H	2.478979	-1.218272	-0.866334
H	2.079963	-1.046701	0.855861
H	0.631947	0.331173	-1.45959
H	-0.165903	-2.359996	-0.543319
H	-2.583657	-1.43815	-0.206221
H	-0.859927	2.22181	-0.629742
H	-1.828924	1.943726	0.845406
H	0.520906	1.101711	1.397282
H	-1.020828	-1.148268	2.006931
