19

C	-2.605686	-1.336018	-0.093801
C	-1.374511	-0.485344	0.034843
C	-0.206157	-0.939436	0.49338
C	1.007644	-0.050953	0.648732
C	0.564884	1.42008	0.622772
O	-0.306034	1.66755	-0.465543
C	-1.526976	0.963908	-0.35997
C	1.978217	-0.352333	-0.487393
O	2.980323	-1.010014	-0.375168
H	-3.437905	-0.920662	0.488947
H	-2.947465	-1.384267	-1.135552
H	-2.424693	-2.356003	0.253857
H	-0.087562	-1.986421	0.759531
H	1.526138	-0.277852	1.586931
H	0.078611	1.667832	1.579819
H	1.415874	2.095084	0.490346
H	-2.201254	1.46635	0.358812
H	-2.005709	1.039578	-1.343646
H	1.665166	0.07665	-1.464742
