19

C	2.893909	-0.630509	-0.171469
C	1.736763	-0.314516	0.784953
C	0.46176	0.066876	0.062199
C	0.363761	1.439081	-0.633945
O	-0.928637	1.710263	-0.038789
C	-0.872027	0.509844	0.764233
C	-1.604658	-0.634654	0.02922
O	-2.720885	-1.059385	0.048236
C	-0.313099	-1.045489	-0.712513
H	3.798375	-0.899324	0.381739
H	2.645264	-1.467103	-0.832911
H	3.135212	0.231503	-0.803062
H	1.54235	-1.184312	1.425981
H	2.027608	0.502704	1.457059
H	1.109565	2.17151	-0.29752
H	0.325417	1.441752	-1.729522
H	-1.035715	0.689431	1.830671
H	-0.009829	-2.06273	-0.440633
H	-0.340521	-0.974249	-1.803453
