19

C	-1.951734	-1.451043	0.1979
C	-1.503283	-0.013585	0.039602
O	-2.105506	0.786878	-0.638538
C	-0.207729	0.353154	0.762098
C	0.268837	1.811723	0.523854
C	1.292621	1.305085	-0.538106
C	1.04842	-0.109048	-0.017328
C	2.011677	-1.143374	0.359681
O	1.143816	-1.300401	-0.776621
H	-2.116533	-1.688222	1.255068
H	-2.868775	-1.623294	-0.366665
H	-1.153696	-2.109187	-0.163928
H	-0.257174	-0.000886	1.796584
H	-0.510277	2.475987	0.151668
H	0.745548	2.245513	1.404367
H	0.917801	1.424397	-1.558113
H	2.315516	1.683784	-0.484763
H	3.066235	-1.014283	0.11995
H	1.802015	-1.803098	1.200904
