19

C	-2.464885	-0.881468	0.404535
C	-1.230476	-0.551304	-0.437037
O	-1.220321	0.820172	-0.847775
C	-0.586916	1.579015	0.174314
C	0.528626	0.698597	0.741752
C	1.746936	0.532977	-0.178266
O	2.475541	-0.612819	0.272555
C	1.336592	-0.823784	-0.567629
C	0.087455	-0.764301	0.322533
H	-2.508669	-1.954248	0.619057
H	-2.452396	-0.348855	1.361269
H	-3.372738	-0.59778	-0.134634
H	-1.260464	-1.136772	-1.363783
H	-0.224447	2.505504	-0.28276
H	-1.297189	1.851529	0.969957
H	0.757514	0.899001	1.789909
H	2.295893	1.292568	-0.723573
H	1.488964	-1.374328	-1.489229
H	0.027776	-1.533826	1.09434
