19

C	2.395145	-0.152269	-0.616511
C	1.361083	0.205713	0.439854
O	0.617444	1.359422	0.016768
C	-0.768556	1.198752	0.267583
C	-1.580302	0.607903	-0.930956
C	-1.524655	-0.776248	-0.255913
O	-0.261294	-1.447027	-0.481243
C	0.321396	-0.877637	0.720341
C	-0.980683	-0.133288	1.047941
H	3.010922	0.71997	-0.849964
H	3.05188	-0.951085	-0.256333
H	1.895481	-0.491716	-1.526218
H	1.864354	0.443592	1.392136
H	-1.160922	2.122678	0.698908
H	-2.602197	1.001011	-0.952903
H	-1.125372	0.695075	-1.919526
H	-2.370757	-1.461148	-0.337022
H	0.681413	-1.658462	1.397792
H	-1.43458	-0.156637	2.034898
