19

O	2.157767	-1.02912	1e-06
C	1.151441	-0.368871	0.0
C	0.335484	0.124008	-1.190156
C	-0.006669	1.573439	-0.784113
C	-0.006668	1.573441	0.784109
C	0.335485	0.124011	1.190156
C	-0.941624	-0.761009	1.183175
O	-1.695771	-0.56312	1e-06
C	-0.941625	-0.761013	-1.183173
H	0.860889	0.016782	-2.140694
H	0.748148	2.262376	-1.172215
H	-0.974294	1.884627	-1.185119
H	0.748151	2.262377	1.172208
H	-0.974291	1.884632	1.185117
H	0.86089	0.016787	2.140693
H	-0.659743	-1.820049	1.298054
H	-1.600458	-0.486793	2.012616
H	-0.659743	-1.820052	-1.298049
H	-1.600458	-0.486798	-2.012615
