19

C	-2.350081	1.4e-05	-0.455754
C	-0.915097	3e-05	0.02455
C	-0.399558	-1.16712	0.909862
C	1.068852	-0.815488	0.628732
O	1.077671	-1.09545	-0.780725
C	0.246452	-1.8e-05	-1.119104
O	1.077739	1.095375	-0.780765
C	1.068894	0.815469	0.628699
C	-0.399504	1.167191	0.90981
H	-2.565011	-0.885008	-1.064778
H	-3.050734	-0.00077	0.386425
H	-2.565466	0.885767	-1.063547
H	-0.730793	-1.080535	1.947252
H	-0.621876	-2.167415	0.534654
H	1.878151	-1.331748	1.139974
H	-0.033014	-3.1e-05	-2.170509
H	1.878214	1.331706	1.139933
H	-0.730724	1.080698	1.947212
H	-0.621771	2.167473	0.534538
