19

C	2.687434	-0.936302	-0.350474
C	1.531838	-0.275217	0.366753
O	1.150731	0.93644	-0.277934
C	-0.271625	0.981381	-0.377206
C	-0.812464	2.317574	0.101281
C	-0.712196	-0.238847	0.47413
O	0.399917	-1.118108	0.347981
C	-1.941802	-0.87378	0.032771
C	-2.980624	-1.353875	-0.331497
H	3.547946	-0.262737	-0.362484
H	2.969166	-1.859125	0.163501
H	2.399046	-1.169174	-1.378248
H	1.798381	-0.039601	1.413774
H	-0.562741	0.806601	-1.421556
H	-0.411188	3.131046	-0.508525
H	-1.904282	2.334273	0.020915
H	-0.532106	2.499089	1.143531
H	-0.818899	0.079072	1.525833
H	-3.893882	-1.791703	-0.651654
