19

C	0.161615	2.586807	-0.058082
C	-0.147036	1.188206	-0.541182
C	-0.898241	0.201307	0.381383
C	-1.946139	-0.65783	-0.20843
O	-2.935897	-1.026165	0.378187
C	0.554185	-0.002696	-0.025937
C	1.760399	-0.162137	0.893041
C	2.08332	-1.367689	-0.017973
O	0.949372	-1.077359	-0.872892
H	-0.720069	3.231641	-0.128976
H	0.487948	2.583782	0.98662
H	0.959568	3.039292	-0.656708
H	-0.43623	1.106656	-1.587734
H	-1.08587	0.513861	1.404686
H	-1.757473	-0.954273	-1.263953
H	2.481503	0.656637	0.848047
H	1.538916	-0.396873	1.934965
H	3.025905	-1.317596	-0.571995
H	1.989391	-2.350744	0.455773
