19

C	-0.282431	-1.352172	-0.79296
O	-1.60423	-1.260838	-0.225521
C	-1.158161	-0.349154	0.797575
C	-1.50407	1.117018	0.37268
C	-0.408657	1.594322	-0.660318
C	0.760625	0.915522	0.028589
O	2.084355	0.428131	-0.35246
C	1.838637	-0.6926	0.563673
C	0.322409	-0.486516	0.332672
H	0.083093	-2.387334	-0.77559
H	-0.227063	-0.975642	-1.821554
H	-1.528845	-0.621505	1.789284
H	-2.512634	1.148135	-0.045515
H	-1.48366	1.773396	1.250021
H	-0.609482	1.203716	-1.660439
H	-0.353378	2.683488	-0.716731
H	0.899176	1.448073	0.987942
H	2.276116	-1.623043	0.191745
H	2.205578	-0.466151	1.573224
