19

O	-1.395845	1.707186	-0.08998
C	-0.996043	0.385583	-0.007768
C	-1.855229	-0.908289	-0.006777
C	-0.373575	-1.374931	0.000989
C	-0.080499	-0.27855	1.075539
C	1.349902	0.229272	1.182684
O	2.089886	-0.034805	0.004329
C	1.350103	0.235562	-1.174585
C	-0.081317	-0.271965	-1.071517
H	-1.925502	1.918604	0.686538
H	-2.434094	-1.116575	0.898572
H	-2.428084	-1.114582	-0.91506
H	-0.012109	-2.400014	0.00139
H	-0.546333	-0.42984	2.055694
H	1.342132	1.310629	1.4095
H	1.886245	-0.274739	1.993467
H	1.345182	1.316318	-1.398477
H	1.884609	-0.269695	-1.98552
H	-0.544432	-0.41925	-2.052288
