19

O	-2.227225	0.077355	-0.994207
C	-1.069657	0.040947	-0.241734
C	-0.288495	1.227384	0.260396
C	1.171311	1.435748	-0.11606
C	1.996617	0.133591	-0.19037
C	1.22025	-1.046597	-0.801314
C	-0.137577	-1.180309	-0.121779
O	-0.03234	-0.975841	1.326614
C	-0.84725	0.191348	1.232811
H	-2.057619	0.591758	-1.790734
H	-0.895746	2.131782	0.285109
H	1.1897	1.935507	-1.094928
H	1.648417	2.129487	0.586199
H	2.913218	0.316251	-0.760714
H	2.298773	-0.154782	0.81928
H	1.05335	-0.906559	-1.878509
H	1.801535	-1.968381	-0.6887
H	-0.645818	-2.126256	-0.332691
H	-1.500475	0.426411	2.064728
