19

O	-2.963245	-0.53642	-0.30326
C	-1.797882	-0.139384	0.409871
C	-0.534716	-0.975232	0.073726
C	0.628982	0.031295	-0.055722
C	1.798338	-0.307863	-1.015846
O	2.77035	-0.244414	0.04405
C	1.753238	0.023628	1.024611
C	-0.087599	1.340156	-0.248206
C	-1.392304	1.253131	-0.000958
H	-3.279555	-1.36046	0.079934
H	-2.008476	-0.160603	1.492603
H	-0.330579	-1.769441	0.797946
H	-0.717983	-1.445606	-0.898404
H	1.745099	-1.307546	-1.467803
H	1.996874	0.429055	-1.80499
H	1.674417	-0.779199	1.770582
H	1.920986	0.976112	1.542977
H	0.444515	2.246493	-0.519548
H	-2.110477	2.063484	-0.044473
