19

O	2.691871	0.192312	0.424946
C	1.930309	-0.768815	-0.289724
C	0.515005	-0.933542	0.223972
C	-0.58475	-1.091823	-0.771158
C	-1.918877	-1.413503	-0.090576
C	-1.784634	-0.121649	0.779837
C	-0.468768	0.216507	0.071988
C	-0.098715	1.567105	-0.372378
O	-0.75448	2.551348	-0.112122
H	2.710993	-0.06755	1.351639
H	1.921932	-0.419968	-1.327195
H	2.425324	-1.752081	-0.28771
H	0.440204	-1.492068	1.159221
H	-0.368183	-1.205348	-1.827564
H	-2.766149	-1.364783	-0.776987
H	-1.954154	-2.369433	0.441398
H	-2.557105	0.619219	0.57178
H	-1.71496	-0.264008	1.862424
H	0.825559	1.641058	-0.981367
