19

C	-1.017121	1.064625	1.386306
C	-0.677667	-0.005561	0.338508
C	0.320774	-1.089386	0.874269
C	1.493226	-0.269692	0.269435
O	2.600211	-0.924073	-0.289312
C	0.482991	0.454169	-0.640106
O	0.723177	1.818958	-0.831954
C	-1.873078	-0.50221	-0.317963
C	-2.852011	-0.906023	-0.890286
H	-1.687472	0.650069	2.144472
H	-0.115152	1.432416	1.881748
H	-1.513191	1.91949	0.919637
H	0.323441	-1.262805	1.951918
H	0.189482	-2.044834	0.358969
H	1.902379	0.437295	0.996196
H	2.278545	-1.56571	-0.93158
H	0.381525	-0.085647	-1.592965
H	0.110759	2.152405	-1.495706
H	-3.72011	-1.267283	-1.383537
