19

O	2.157939	-1.016807	-0.245531
C	0.804474	-0.726863	-0.49272
C	0.593748	0.775665	-0.790258
O	1.049615	1.326439	0.4911
C	-0.200862	0.766008	0.99051
C	-0.880899	1.055583	-0.369392
C	-1.931259	-0.020848	-0.654156
C	-1.541259	-1.163487	0.336236
C	-0.119191	-0.777807	0.77077
H	2.466018	-0.298388	0.325105
H	0.472748	-1.398373	-1.288894
H	1.0844	1.213727	-1.659666
H	-0.517004	1.16571	1.953537
H	-1.169921	2.0933	-0.533296
H	-2.941961	0.351596	-0.465958
H	-1.906223	-0.350763	-1.697658
H	-2.221695	-1.176691	1.195015
H	-1.57975	-2.156629	-0.120466
H	0.304437	-1.370044	1.581801
