19

C	3.056314	-0.331679	0.509796
C	1.841272	-0.367894	-0.404992
C	0.658342	-1.352161	-0.130612
C	-0.37573	-0.218134	-0.434381
C	-1.573126	-0.040777	0.456122
C	-2.860168	-0.688757	0.16393
O	-2.669124	0.705074	-0.073354
C	0.808	0.765078	-0.284048
O	0.886288	1.921094	0.014606
H	3.668123	-1.231607	0.393113
H	3.680451	0.537754	0.283379
H	2.754632	-0.259203	1.559758
H	2.15131	-0.447547	-1.455156
H	0.598863	-2.242611	-0.757184
H	0.62598	-1.653606	0.920871
H	-0.703551	-0.24963	-1.479498
H	-1.345887	0.188821	1.498418
H	-2.959123	-1.306912	-0.72786
H	-3.537537	-0.938849	0.979253
