19

O	0.219382	1.788379	-0.259659
C	-0.311559	0.561629	0.098076
C	-1.700531	0.68475	0.773876
C	-2.320108	-0.285295	-0.277632
C	-0.920497	-0.537368	-0.880382
C	-0.099367	-1.620561	-0.131468
C	0.61778	-0.510347	0.734668
C	2.066324	-0.442599	0.355932
O	2.55704	0.344379	-0.425205
H	1.113033	1.621449	-0.598526
H	-1.743963	0.358943	1.817155
H	-2.075216	1.708078	0.713097
H	-2.836634	-1.166828	0.113145
H	-2.993984	0.225708	-0.969131
H	-0.807546	-0.511594	-1.964357
H	-0.68887	-2.326752	0.457801
H	0.582969	-2.191475	-0.766485
H	0.545276	-0.649656	1.819782
H	2.701306	-1.231192	0.818012
