19

C	-1.862938	1.493371	-0.295399
C	-1.3373	0.289699	0.473154
C	-1.850884	-1.111131	0.063854
O	-0.508045	-1.557209	-0.246956
C	0.031641	-0.278851	0.074108
C	1.082402	0.423806	-0.827755
C	2.13947	-0.604425	-0.361334
C	1.347586	-0.120742	0.875304
O	1.407916	1.2653	0.349546
H	-1.818891	1.322359	-1.376628
H	-2.905484	1.701661	-0.032702
H	-1.267	2.381173	-0.067384
H	-1.408181	0.466152	1.549845
H	-2.304973	-1.71853	0.854176
H	-2.495687	-1.12924	-0.823335
H	0.972078	0.924334	-1.78976
H	2.011738	-1.642654	-0.672735
H	3.17135	-0.254413	-0.411477
H	1.546213	-0.265929	1.937686
