19

C	0.356718	2.285252	-0.008154
C	0.478811	0.884942	-0.594265
C	1.764094	0.143902	-0.210369
C	1.35871	-1.336179	-0.177415
O	-0.005241	-1.429472	-0.58946
C	-0.236868	-0.230053	0.229551
C	-1.652131	-0.152443	0.718509
O	-2.550356	-0.08619	-0.376188
C	1.10761	-0.486545	1.0176
H	1.048173	2.976966	-0.500253
H	-0.656971	2.676049	-0.143598
H	0.588258	2.29219	1.063004
H	0.210842	0.880023	-1.656398
H	2.791776	0.466739	-0.323471
H	2.021523	-2.172449	-0.355471
H	-1.862621	-1.016201	1.367932
H	-1.800216	0.757194	1.309606
H	-2.337482	-0.831707	-0.950062
H	1.379832	-0.556771	2.061157
