19

C	3.019059	-0.553251	0.025883
C	1.654929	-0.11344	-0.519954
C	0.468099	-0.9828	-0.026823
C	-0.712977	-0.00969	0.285198
O	-1.391967	-0.342144	1.469259
C	-1.707592	0.000567	-0.867797
O	-2.884743	-0.214154	-0.707937
C	-0.011787	1.33722	0.350272
C	1.241589	1.277315	-0.09189
H	3.253106	-1.576981	-0.28393
H	3.820926	0.097398	-0.338949
H	3.028069	-0.520288	1.120501
H	1.707367	-0.148681	-1.6181
H	0.198407	-1.775406	-0.731399
H	0.712658	-1.460774	0.926126
H	-2.321769	-0.460338	1.216096
H	-1.282089	0.221185	-1.867806
H	-0.532932	2.217594	0.707955
H	1.922021	2.12115	-0.150405
