19

O	-2.24637	0.605832	0.644565
C	-1.10814	0.169054	-0.051992
C	-1.199759	-1.160184	-0.765907
C	-0.412551	-1.034553	0.523279
C	1.102252	-0.94011	0.448025
C	1.565676	0.402829	1.054504
C	1.278115	0.897887	-0.381195
C	-0.192464	1.280307	-0.58493
O	1.484075	-0.460017	-0.873923
H	-2.88792	0.914656	-0.004963
H	-2.154989	-1.670149	-0.706563
H	-0.638308	-1.292877	-1.682967
H	-0.832778	-1.468197	1.424861
H	1.618464	-1.867668	0.708702
H	0.984526	0.820217	1.879344
H	2.632775	0.417025	1.281806
H	1.969316	1.607753	-0.842788
H	-0.411201	2.197375	-0.02681
H	-0.380298	1.48397	-1.646461
