19

C	3.023347	-0.30388	-0.282689
C	1.890479	0.567145	0.266256
C	0.556969	0.315917	-0.430685
O	0.157782	-1.06053	-0.280314
C	-1.095974	-0.987373	0.437486
O	-0.916664	0.109823	1.303305
C	-0.656107	1.050257	0.243216
C	-1.84527	0.82768	-0.6818
C	-2.135988	-0.467695	-0.554869
H	2.777649	-1.363278	-0.173677
H	3.196173	-0.107288	-1.346934
H	3.960131	-0.110591	0.24858
H	1.753849	0.382781	1.337109
H	2.142715	1.629668	0.148283
H	0.625381	0.553413	-1.499743
H	-1.264554	-1.918822	0.973409
H	-0.463393	2.047748	0.632541
H	-2.244629	1.554374	-1.375313
H	-2.837002	-1.074655	-1.109676
