19

C	-2.644736	-0.203079	-0.11819
C	-1.48048	-0.506918	0.835754
C	-0.145631	-0.235147	0.193062
O	0.121108	-1.05378	-0.982086
C	1.39915	-1.487763	-0.456535
C	1.297786	-0.534716	0.74021
C	1.743726	0.918515	0.42632
C	0.325258	1.21371	-0.110504
O	-0.209835	2.186847	-0.55427
H	-3.603674	-0.423247	0.359264
H	-2.637636	0.848629	-0.415873
H	-2.563547	-0.812044	-1.022568
H	-1.562265	0.104354	1.743746
H	-1.511283	-1.556744	1.152831
H	1.374784	-2.553909	-0.19997
H	2.220852	-1.306356	-1.159535
H	1.496076	-0.919298	1.738413
H	1.959647	1.5183	1.316661
H	2.566423	1.048156	-0.282824
