19

O	-1.529322	1.717581	-0.032464
C	-0.334279	0.97996	-0.110299
C	-0.129473	-0.074812	1.003441
C	-1.435006	-0.891668	0.916598
C	-1.54316	-1.033622	-0.640222
C	-0.272238	-0.26573	-1.049425
C	0.774687	-0.837363	-0.012302
C	2.19264	-0.382718	-0.203733
O	2.684465	0.631825	0.229641
H	-1.481018	2.444648	-0.659356
H	0.538654	1.6265	-0.213547
H	0.242909	0.206568	1.987426
H	-1.350275	-1.855749	1.425467
H	-2.280726	-0.349025	1.34196
H	-1.526366	-2.072978	-0.978771
H	-2.440923	-0.553495	-1.034639
H	-0.037872	-0.189121	-2.112219
H	0.768612	-1.931023	0.055738
H	2.806826	-1.085852	-0.813821
