19

O	-2.351263	-0.573737	-0.653056
C	-1.806341	0.551114	0.016381
C	-0.323436	0.376924	0.311408
C	0.51105	1.643498	0.630153
O	1.483306	1.300846	-0.377239
C	0.672393	0.207498	-0.871603
C	1.357977	-1.158403	-0.730432
C	0.889448	-1.633504	0.627259
C	-0.004802	-0.813071	1.183405
H	-2.101039	-1.356553	-0.148878
H	-1.960369	1.404345	-0.652808
H	-2.350527	0.767849	0.952036
H	0.000633	2.590078	0.401472
H	0.95499	1.705102	1.630135
H	0.293145	0.413831	-1.877795
H	1.074401	-1.855818	-1.529128
H	2.446549	-1.036914	-0.780645
H	1.26543	-2.541465	1.087529
H	-0.457299	-0.951661	2.161016
