19

C	-1.449131	-1.773996	-0.277003
C	-1.092672	-0.331413	0.046283
C	-1.962877	0.67118	-0.68819
C	-0.569592	0.002516	1.388241
C	0.441254	0.022957	0.236384
C	0.946524	1.350009	-0.222456
O	0.424405	2.411841	0.033216
C	1.42942	-1.084636	0.133101
O	2.451661	-1.028892	-0.508132
H	-0.907583	-2.500265	0.331799
H	-2.518465	-1.92383	-0.091208
H	-1.26314	-2.003399	-1.331355
H	-3.006639	0.513103	-0.393331
H	-1.691151	1.700311	-0.457776
H	-1.900112	0.525184	-1.771824
H	-0.783234	0.984686	1.796672
H	-0.450295	-0.792424	2.118676
H	1.876126	1.290339	-0.817428
H	1.178406	-1.996993	0.716933
