19

O	-2.803437	-1.090557	0.028236
C	-1.701472	-0.306576	0.379544
C	-1.133945	0.513766	-0.737275
C	-0.372609	1.77841	-0.376445
C	0.62434	1.35021	0.72892
C	0.895581	-0.17117	0.516277
C	2.110011	-0.384647	-0.363251
O	3.056935	-1.071116	-0.077129
C	-0.354335	-0.679057	-0.202703
H	-2.762445	-1.908478	0.535307
H	-1.74283	0.118443	1.383671
H	-1.650152	0.449956	-1.688104
H	0.16345	2.138801	-1.261723
H	-1.021952	2.594262	-0.041287
H	1.545166	1.940915	0.710972
H	0.184968	1.493802	1.719678
H	1.087213	-0.688143	1.461935
H	2.06994	0.156342	-1.338862
H	-0.306766	-1.608126	-0.760843
