19

C	1.859572	-0.098116	-0.014653
C	0.819609	0.192874	1.092911
C	0.237893	1.499884	0.51501
C	-0.243069	0.918331	-0.836192
O	-1.57124	0.433766	-0.659238
C	-1.655021	-0.348597	0.537837
C	-0.261715	-0.93142	0.798003
O	0.109822	-1.453052	-0.4928
C	0.750717	-0.308305	-1.060468
H	2.530004	0.746921	-0.188926
H	2.440025	-1.012771	0.115957
H	1.16936	0.222076	2.124849
H	-0.594511	1.938164	1.068482
H	1.012591	2.263905	0.407897
H	-0.272013	1.618284	-1.671715
H	-2.028072	0.248619	1.383407
H	-2.369367	-1.154077	0.343642
H	-0.267643	-1.740728	1.531049
H	1.02306	-0.524	-2.093036
