19

C	-3.388147	-0.037979	-0.440221
C	-2.131409	-0.28512	0.376356
O	-1.091598	0.516021	-0.15622
C	0.10684	0.475716	0.58371
C	1.108191	1.439354	-0.02943
C	2.280495	0.860184	-0.285839
C	2.220688	-0.597125	0.056895
O	1.246789	-1.315046	-0.732781
C	0.869509	-0.861246	0.567859
H	-4.215312	-0.645377	-0.060718
H	-3.677459	1.015592	-0.390529
H	-3.218153	-0.297942	-1.488638
H	-2.299454	-0.028357	1.436657
H	-1.853796	-1.349982	0.339038
H	-0.098868	0.744207	1.637471
H	0.828761	2.460852	-0.257579
H	3.149528	1.337687	-0.721279
H	3.096901	-1.168406	0.34767
H	0.649319	-1.638784	1.293941
