19

C	3.984281	0.717114	-0.191836
O	2.585814	0.552312	-0.135548
C	2.218468	-0.798754	0.071584
C	0.766768	-0.914179	0.114156
C	-0.431921	-1.016019	0.150237
C	-1.884263	-1.094461	0.173577
C	-2.620561	0.242834	-0.077616
C	-1.98383	1.498047	0.473662
O	-3.676173	0.239339	-0.660607
H	4.471871	0.404043	0.745233
H	4.4313	0.143108	-1.019101
H	4.177741	1.779705	-0.353507
H	2.621652	-1.435113	-0.735763
H	2.654933	-1.175286	1.013522
H	-2.265219	-1.809446	-0.561982
H	-2.226093	-1.447555	1.158338
H	-1.764375	1.378238	1.540563
H	-1.022496	1.674683	-0.019315
H	-2.650092	2.346921	0.318677
