19

C	-0.572591	2.020861	-0.41078
C	0.253366	0.875023	0.119025
C	-0.110547	0.210737	1.420271
C	-0.233837	-0.582524	0.132509
O	0.80313	-1.452834	-0.225003
C	2.040538	-0.742626	-0.129082
C	1.710507	0.752085	-0.315454
C	-1.553188	-0.985538	-0.393879
O	-2.59735	-0.447138	-0.103714
H	-0.259042	2.964899	0.049289
H	-0.456533	2.123464	-1.495509
H	-1.632738	1.870481	-0.194388
H	0.662611	-0.089151	2.119897
H	-1.053603	0.505015	1.868493
H	2.497783	-0.924384	0.852673
H	2.715479	-1.139346	-0.891799
H	2.387714	1.389814	0.261447
H	1.791563	1.045654	-1.367641
H	-1.50496	-1.834781	-1.108383
