19

O	2.414053	0.363683	0.133049
C	1.022826	0.227438	0.003208
C	0.273655	1.529869	-0.208596
C	-1.251949	1.375802	-0.371642
C	-1.856329	0.309117	0.556965
C	-1.051281	-0.981521	0.455062
O	-0.679864	-1.265878	-0.938291
C	0.695671	-1.111796	-0.609971
C	0.427006	-0.875332	0.857862
H	2.593044	0.804867	0.971538
H	0.487022	2.160902	0.66829
H	0.695216	2.054637	-1.073316
H	-1.737202	2.342573	-0.202866
H	-1.469007	1.082732	-1.401398
H	-1.852532	0.635408	1.605596
H	-2.901754	0.131473	0.281281
H	-1.569974	-1.845168	0.882429
H	1.427809	-1.715106	-1.133819
H	0.896269	-1.276208	1.746878
