19

O	-0.170258	2.064326	-0.021808
C	-0.672218	0.861345	0.516011
C	-2.014077	0.409901	-0.020065
C	-2.033959	-0.899074	-0.26312
C	-0.705861	-1.551801	0.047244
C	0.247587	-0.356356	0.195555
C	1.577587	-0.487492	0.964912
C	2.241996	-0.095455	-0.365691
O	0.966098	-0.085471	-1.049924
H	0.196108	1.811736	-0.882427
H	-0.725169	1.012666	1.603866
H	-2.839959	1.10081	-0.142408
H	-2.890719	-1.46291	-0.615469
H	-0.750886	-2.129675	0.981472
H	-0.354641	-2.23322	-0.73497
H	1.709713	0.216571	1.788176
H	1.803538	-1.49801	1.310582
H	2.713512	0.893362	-0.376871
H	2.925455	-0.828576	-0.807169
