19

C	3.733225	0.694408	-7.9e-05
C	2.73994	-0.454551	0.000144
O	1.432221	0.083798	-0.000103
C	0.42906	-0.900369	3.1e-05
C	-0.895022	-0.213913	-4.4e-05
C	-1.267054	1.092067	5.4e-05
C	-2.702863	1.096573	4.9e-05
C	-3.085141	-0.204637	-1.9e-05
O	-1.99183	-1.020394	-7.2e-05
H	3.595629	1.319678	-0.886671
H	3.595565	1.320113	0.886195
H	4.757985	0.311415	5.8e-05
H	2.885865	-1.094851	-0.886256
H	2.885719	-1.094428	0.886874
H	0.518031	-1.557899	-0.883904
H	0.518037	-1.557641	0.884155
H	-0.599556	1.937556	3.6e-05
H	-3.354271	1.956461	0.000109
H	-4.039	-0.705102	-1.9e-05
