19

C	2.174601	-1.466738	-0.015001
C	0.894247	-0.683155	-0.091053
C	-0.306682	-1.244326	-0.310342
C	-1.60794	-0.486267	-0.382214
O	-2.368811	-0.70647	0.812437
C	-1.388548	1.001612	-0.678034
C	-0.277064	1.589839	0.195943
C	1.017088	0.794717	0.096502
O	2.106256	1.321467	0.207087
H	2.669232	-1.313573	0.949799
H	1.995634	-2.535101	-0.157208
H	2.881851	-1.120065	-0.77507
H	-0.382922	-2.326599	-0.400285
H	-2.230456	-0.916703	-1.174548
H	-1.776161	-0.594643	1.563292
H	-1.116556	1.110034	-1.735078
H	-2.331157	1.535461	-0.526799
H	-0.058391	2.632319	-0.046779
H	-0.584848	1.574793	1.251672
