19

C	1.669412	-1.325445	-0.606353
C	0.46254	-0.699007	0.050569
C	0.444965	-0.440659	1.589462
C	0.131538	1.071411	1.350388
C	0.087012	0.819524	-0.181541
O	0.753482	1.659898	-1.072906
C	-1.259367	0.351941	-0.785281
O	-1.945689	-0.423008	0.199531
C	-0.916086	-1.063334	-0.567932
H	1.741321	-2.394137	-0.371203
H	1.623842	-1.224005	-1.69639
H	2.598256	-0.85282	-0.267245
H	-0.328248	-0.982416	2.134848
H	1.411957	-0.623187	2.065616
H	-0.786335	1.45393	1.800793
H	0.959761	1.733518	1.624885
H	1.644286	1.814498	-0.741556
H	-1.849852	0.852015	-1.545599
H	-1.197417	-1.95911	-1.113024
