19

C	3.765458	0.933816	0.199877
C	2.535426	0.188619	-0.021151
C	1.516395	-0.425676	-0.209848
C	0.288999	-1.169169	-0.428695
C	-0.611523	-1.446704	0.808111
C	-1.651126	-0.569804	0.086525
C	-1.977527	0.782936	0.698055
O	-2.553962	1.63363	-0.271426
O	-0.769207	-0.384844	-1.055333
H	3.74461	1.889521	-0.335252
H	3.915136	1.152281	1.262846
H	4.638801	0.374916	-0.153369
H	0.493279	-2.062292	-1.032005
H	-0.886628	-2.493164	0.939994
H	-0.232069	-1.043859	1.748102
H	-2.572609	-1.076788	-0.223414
H	-2.705873	0.670375	1.509607
H	-1.057993	1.217587	1.123482
H	-1.947915	1.617031	-1.023168
