19

C	-2.15119	0.09645	-0.675616
C	-0.830418	-0.221524	-0.038891
C	-0.59887	-0.420323	1.483774
C	0.873226	-0.223429	1.102566
C	1.123451	-1.136494	-0.170645
C	1.469791	0.121676	-1.001641
C	0.448258	0.755987	-0.064955
O	0.29957	2.130969	-0.011406
O	-0.227052	-1.414477	-0.573584
H	-2.878477	-0.697855	-0.47864
H	-2.555429	1.034071	-0.280868
H	-2.039994	0.199697	-1.758951
H	-0.966767	0.416223	2.08783
H	-0.935206	-1.36964	1.907749
H	1.692578	-0.044018	1.796118
H	1.730971	-2.038504	-0.162281
H	2.472788	0.504273	-0.794051
H	1.276592	0.077301	-2.076327
H	-0.382693	2.352462	0.631793
