19

O	3.55701	-0.698738	0.261423
C	2.453307	-0.138098	-0.433729
C	1.195028	-0.456897	0.365987
C	-0.057396	0.089936	-0.285269
O	-0.082296	1.536845	-0.344003
C	-1.423471	1.584619	0.172749
C	-1.384546	0.073763	0.532118
C	-2.466008	-0.779431	0.093063
C	-3.360575	-1.484529	-0.292453
H	4.361721	-0.442015	-0.197932
H	2.550853	0.952336	-0.536447
H	2.364657	-0.559505	-1.448902
H	1.098707	-1.545104	0.468405
H	1.299809	-0.038341	1.373377
H	-0.196126	-0.335913	-1.289518
H	-1.522453	2.2845	1.008672
H	-2.159434	1.829937	-0.602658
H	-1.181431	-0.077868	1.596592
H	-4.152053	-2.109055	-0.625752
