19

C	-0.94521	-1.619322	-1.131185
C	-0.460483	-0.931143	0.15986
C	1.071391	-0.793808	0.232374
O	1.497371	-0.479566	1.553258
C	1.601381	0.239786	-0.775518
C	0.816122	1.52046	-0.731164
C	-0.428322	1.603912	-0.239085
C	-1.157084	0.426521	0.284546
O	-2.274805	0.528391	0.7508
H	-0.700861	-1.0341	-2.023914
H	-0.486843	-2.607751	-1.237053
H	-2.030407	-1.744952	-1.101114
H	-0.784022	-1.530221	1.016457
H	1.526409	-1.767836	0.023291
H	1.15421	0.392159	1.780406
H	2.657355	0.433976	-0.559199
H	1.571497	-0.166766	-1.796623
H	1.297196	2.413171	-1.125766
H	-0.971832	2.543287	-0.207905
