19

C	0.839979	1.868488	-0.567176
C	0.84399	0.476017	0.06135
O	2.176618	0.012282	0.278804
C	-0.076555	-0.090706	1.141339
C	-1.603995	0.047286	0.888281
C	-2.02199	0.753927	-0.377041
C	-1.468381	-0.642295	-0.460393
C	0.050105	-0.774943	-0.230086
O	0.646731	-1.943675	-0.637066
H	1.859856	2.262738	-0.53698
H	0.532034	1.847552	-1.616732
H	0.193309	2.564617	-0.028094
H	2.501536	0.397895	1.09961
H	0.326425	-0.367286	2.109667
H	-2.318286	-0.175556	1.67044
H	-3.100582	0.793901	-0.50891
H	-1.513743	1.617998	-0.779339
H	-2.033191	-1.47918	-0.849127
H	1.586939	-1.838178	-0.432084
