19

C	2.16908	-0.789898	0.216479
O	2.205992	0.614236	-0.136986
C	0.794772	0.608181	-0.500856
C	-0.058883	1.66324	0.205789
C	-1.489426	1.130957	0.457222
O	-1.891201	0.16656	-0.512237
C	-1.772823	-1.177707	-0.087011
C	-0.356466	-1.61294	0.19507
C	0.677575	-0.815734	-0.012609
H	2.768499	-1.40213	-0.472365
H	2.516655	-0.972375	1.241942
H	0.687891	0.701292	-1.589508
H	0.413602	1.914288	1.161033
H	-0.085855	2.579086	-0.393
H	-1.558969	0.694632	1.462247
H	-2.213356	1.951332	0.40748
H	-2.390423	-1.350464	0.813308
H	-2.213352	-1.786092	-0.887543
H	-0.225997	-2.61253	0.605677
