19

C	-2.957258	-1.034785	0.11941
C	-2.016447	0.098907	-0.296351
C	-0.622654	-0.000178	0.327926
C	0.268079	-1.169134	-0.131861
C	1.715783	-0.674492	-0.033437
O	2.693608	-1.374581	-0.039119
C	1.708974	0.85051	0.069061
C	0.237166	1.252979	0.081714
O	-0.191844	2.365032	-0.086013
H	-2.571435	-2.014574	-0.18202
H	-3.097169	-1.054054	1.20614
H	-3.942581	-0.912882	-0.340121
H	-1.911855	0.115191	-1.389113
H	-2.442479	1.068192	-0.018986
H	-0.730249	-0.057029	1.423718
H	0.143077	-2.09861	0.426994
H	0.077494	-1.403728	-1.189168
H	2.201333	1.168427	0.996106
H	2.257908	1.322626	-0.751269
