19

C	-2.617671	-0.789862	0.140118
C	-1.2966	-0.513081	-0.56377
C	-0.066928	-1.436727	-0.23659
C	0.691291	-0.201722	0.241294
O	-0.090055	0.422264	1.27987
C	-0.4748	0.697625	-0.05925
C	-0.571536	2.123336	-0.499645
C	2.1275	0.110278	0.177239
O	2.941186	-0.591849	-0.374888
H	-2.474899	-0.808317	1.224258
H	-3.364558	-0.023705	-0.094946
H	-3.0267	-1.757636	-0.16764
H	-1.437559	-0.443801	-1.647122
H	-0.223004	-2.197784	0.531469
H	0.383186	-1.890965	-1.120305
H	0.23686	2.721794	-0.073436
H	-0.5307	2.195952	-1.590609
H	-1.523338	2.5556	-0.169701
H	2.40413	1.066461	0.6718
