19

C	-2.878595	-0.708865	0.736017
C	-1.833875	0.057732	-0.040634
O	-2.031834	1.067813	-0.669125
O	-0.63142	-0.546529	0.060032
C	0.464934	0.073421	-0.655372
C	1.080424	1.218642	0.185175
C	2.28636	0.576446	0.826213
C	2.551931	-0.620351	0.306737
C	1.570614	-0.997042	-0.776961
H	-2.597745	-0.758389	1.791993
H	-3.843924	-0.215311	0.630831
H	-2.940962	-1.737142	0.369057
H	0.079855	0.422649	-1.613191
H	1.367763	2.061811	-0.45685
H	0.355915	1.614315	0.903501
H	2.865534	1.06717	1.600259
H	3.381724	-1.258765	0.587626
H	2.040104	-0.966819	-1.76921
H	1.147003	-1.999691	-0.658321
