19

C	1.927552	0.000166	-1.068699
O	2.286198	-5.4e-05	0.328522
C	0.913193	1e-06	-0.019206
C	-0.055551	-1.061222	0.505383
C	-0.472743	-0.000249	1.573498
C	-0.055546	1.061061	0.505719
C	-1.203324	1.200478	-0.510587
O	-1.958734	0.000101	-0.606113
C	-1.203337	-1.200314	-0.510959
H	2.160571	0.919119	-1.60561
H	2.16057	-0.918616	-1.605901
H	0.347408	-2.028012	0.813787
H	-1.512726	-0.000298	1.904282
H	0.204486	-0.000386	2.428731
H	0.347415	2.027753	0.814428
H	-1.91402	1.97173	-0.195079
H	-0.800406	1.492844	-1.494322
H	-1.91404	-1.971659	-0.195691
H	-0.800423	-1.492376	-1.494786
