19

C	1.883311	-1.222787	0.750153
C	1.47253	-0.03453	-0.088864
O	2.178114	0.932661	-0.263725
C	0.065903	-0.067732	-0.717621
O	-0.506844	-1.36676	-0.685889
C	-1.72686	-1.354792	0.060456
C	-1.898772	0.070284	0.493087
C	-0.896718	0.825375	0.047946
C	-0.677523	2.295095	0.193793
H	2.882844	-1.057316	1.153516
H	1.167938	-1.371477	1.566558
H	1.855428	-2.135082	0.147281
H	0.184594	0.271784	-1.75874
H	-2.551877	-1.706067	-0.578232
H	-1.651205	-2.057056	0.905318
H	-2.749648	0.414948	1.067777
H	-0.709285	2.790991	-0.784269
H	-1.440926	2.747129	0.831837
H	0.310756	2.509459	0.612168
