19

C	-2.796292	-0.556372	-0.362415
C	-1.317312	-0.218546	-0.373083
C	-0.968623	1.272981	-0.173758
C	0.424708	1.250394	0.474137
C	1.641243	1.054527	-0.478971
C	1.659265	-0.439526	-0.101275
O	2.253495	-1.393006	-0.507617
C	0.535447	-0.23614	0.968956
O	-0.683887	-0.888303	0.727113
H	-3.257327	-0.219305	0.571086
H	-3.304841	-0.069089	-1.199944
H	-2.944883	-1.635781	-0.451226
H	-0.867344	-0.577036	-1.313874
H	-0.999396	1.833273	-1.112378
H	-1.692123	1.725518	0.512515
H	0.556129	2.027201	1.226293
H	1.481247	1.258596	-1.542535
H	2.550482	1.576845	-0.16477
H	0.850576	-0.433656	1.997317
