19

O	-0.709022	-1.506787	-0.001238
C	-0.461708	-0.139074	-0.000971
C	-1.772183	0.600088	-0.000784
O	-2.825842	0.001106	0.001112
C	0.601722	0.40919	-1.031759
C	0.910539	1.528753	-0.000401
C	0.60039	0.410053	1.031449
C	1.760854	-0.57552	0.783759
C	1.762041	-0.576018	-0.781671
H	-1.676519	-1.596636	0.001765
H	-1.750943	1.703808	-0.002079
H	0.330167	0.621962	-2.066134
H	1.930159	1.921615	6.5e-05
H	0.205405	2.359741	-0.001205
H	0.327265	0.62366	2.065233
H	2.695723	-0.202985	1.211642
H	1.554087	-1.563149	1.197792
H	2.697444	-0.203459	-1.208359
H	1.556201	-1.563945	-1.19545
