19

C	-3.404269	0.164765	-0.085397
O	-2.062476	0.309381	0.313588
C	-1.164869	-0.399375	-0.514834
C	0.229994	-0.165707	-0.013803
C	0.771251	1.25649	0.139184
C	2.26358	1.081143	-0.054597
C	2.5942	-0.183237	-0.330155
C	1.376685	-1.048576	-0.302774
O	0.716885	-1.068786	0.985695
H	-3.731302	-0.886211	-0.045489
H	-4.015607	0.75108	0.604614
H	-3.568573	0.53529	-1.110306
H	-1.381859	-1.479041	-0.501807
H	-1.252384	-0.048979	-1.558955
H	0.335875	1.932043	-0.608032
H	0.52118	1.6706	1.1218
H	2.962674	1.902541	0.05651
H	3.592501	-0.561863	-0.509738
H	1.302792	-1.973243	-0.868604
