19

C	4.190738	-0.127343	-0.284883
O	2.801899	-0.117779	-0.518643
C	2.066985	0.118542	0.667375
C	0.638575	0.123855	0.391334
C	-0.547808	0.123293	0.178785
C	-1.966952	0.166307	-0.05393
O	-2.497437	1.427744	-0.372097
C	-2.867879	-0.793661	0.711432
C	-2.646247	-0.973413	-0.768268
H	4.678454	-0.314438	-1.24398
H	4.54661	0.836315	0.114096
H	4.48249	-0.919086	0.424064
H	2.298267	-0.655071	1.421252
H	2.361627	1.08474	1.114448
H	-2.303118	2.018248	0.364486
H	-2.405374	-1.493192	1.397666
H	-3.820396	-0.384321	1.028149
H	-2.029855	-1.795802	-1.109352
H	-3.448868	-0.682595	-1.435985
