19

O	-0.795338	2.01695	-0.261954
C	-0.763978	0.863885	0.576884
C	-1.967757	-0.076738	0.341965
C	-1.512701	-1.065149	-0.75987
C	-0.009223	-1.198132	-0.567057
C	0.499413	-1.414344	0.814295
C	0.462726	0.008212	0.274065
C	1.764428	0.651422	-0.026537
O	2.779765	0.041113	-0.278738
H	-0.807225	1.719028	-1.178673
H	-0.760788	1.269335	1.593427
H	-2.209956	-0.614494	1.263437
H	-2.852685	0.500995	0.065732
H	-2.032692	-2.026077	-0.691307
H	-1.722212	-0.664032	-1.758876
H	0.614825	-1.52344	-1.391875
H	-0.188208	-1.677875	1.610825
H	1.499279	-1.822948	0.90788
H	1.746796	1.760075	-0.017506
