19

C	1.169647	0.848566	-1.004897
C	1.828632	-0.321049	-0.264239
C	0.784736	-1.2359	0.28736
O	-0.395937	-1.516003	-0.417135
C	-1.578136	-0.928763	0.066916
O	-1.781651	0.375741	-0.396689
C	-1.089802	1.389514	0.317647
C	0.429203	1.249608	0.314893
C	1.050173	0.037271	1.028812
H	1.87705	1.609274	-1.338067
H	0.524535	0.55702	-1.836734
H	2.858921	-0.635974	-0.377355
H	1.185196	-2.12127	0.778995
H	-2.395663	-1.526977	-0.34254
H	-1.596748	-0.954622	1.169112
H	-1.384767	2.327478	-0.164897
H	-1.44624	1.424104	1.361601
H	0.852148	2.175025	0.719411
H	1.379555	0.032552	2.062113
