19

C	-2.068384	1.585155	-0.016697
C	-1.287072	0.583429	0.841269
C	-0.70033	-0.548468	0.02539
O	-1.748467	-1.26773	-0.567031
C	0.515475	-1.331658	0.360275
C	1.608281	-0.486562	1.027721
C	1.605204	0.413725	-0.239174
O	2.312989	1.311434	-0.600846
C	0.530225	-0.386064	-0.897976
H	-2.499533	2.373413	0.606967
H	-1.414071	2.05914	-0.755255
H	-2.880176	1.087293	-0.55208
H	-0.488907	1.101576	1.379467
H	-1.947081	0.140488	1.596977
H	-1.390569	-2.036745	-1.023369
H	0.504259	-2.415994	0.356164
H	1.393709	-0.02983	1.996889
H	2.564447	-1.015627	1.089184
H	0.421345	-0.590681	-1.956785
