19

O	-2.947051	-0.196258	0.434419
C	-2.145634	0.603913	0.024433
C	-0.764203	0.262036	-0.496644
C	-0.435683	-1.225796	-0.302657
O	0.945168	-1.481598	-0.49687
C	1.723773	-0.94619	0.558252
C	1.561979	0.556669	0.68166
C	1.609207	1.405302	-0.560489
C	0.290854	1.175541	0.140321
H	-2.386894	1.692727	-0.003578
H	-0.804709	0.485998	-1.574421
H	-0.746047	-1.541871	0.704314
H	-0.975471	-1.841819	-1.024772
H	1.444054	-1.428343	1.510615
H	2.762519	-1.213276	0.337036
H	1.970693	0.979337	1.594801
H	2.060386	2.389569	-0.501737
H	1.758944	0.889661	-1.503892
H	-0.110176	2.02202	0.691987
