19

O	2.54637	-0.242575	-0.16011
C	1.469141	-1.179397	-0.299302
C	0.165494	-0.596105	0.167535
C	0.012826	0.242812	1.429812
C	-0.231846	0.855094	0.071123
O	0.482797	1.923772	-0.438815
C	-1.585857	0.474142	-0.584425
C	-2.416118	-0.468978	0.238462
C	-1.200441	-0.996074	-0.476442
H	2.833133	-0.255308	0.758004
H	1.407737	-1.39647	-1.372417
H	1.71427	-2.125031	0.207484
H	-0.747407	0.054748	2.180888
H	0.959294	0.569202	1.853396
H	1.396816	1.620893	-0.52983
H	-1.968702	1.013213	-1.440557
H	-2.48166	-0.401622	1.318347
H	-3.355006	-0.752839	-0.228845
H	-1.271002	-1.765316	-1.23565
