19

O	2.422446	-0.333651	-0.396352
C	1.084817	-0.212953	-0.037509
C	0.219316	-1.416899	0.442874
C	-0.931438	-0.466921	0.083327
O	-2.267965	-0.830034	-0.004693
C	-0.688869	0.958138	0.738885
C	-0.64215	1.557565	-0.695181
C	-0.078143	0.180026	-1.064427
C	0.812357	0.819979	1.067133
H	2.499537	-1.022504	-1.06412
H	0.256502	-2.256749	-0.263204
H	0.350876	-1.780087	1.466929
H	-2.339778	-1.590395	-0.59146
H	-1.3622	1.339717	1.505302
H	-1.639655	1.699935	-1.118353
H	-0.034904	2.454266	-0.852221
H	-0.013694	-0.227417	-2.075165
H	1.363848	1.753544	0.926415
H	1.028284	0.425559	2.063619
