19

C	1.887263	-0.693541	-0.073397
C	0.604686	-1.385848	-0.554084
C	-0.584147	-1.263208	0.387562
C	-1.810767	-0.510501	-0.052678
O	-1.430108	0.529335	-0.960166
C	-0.666215	1.18966	0.105554
C	0.817722	1.469233	-0.204454
O	1.699418	0.601863	0.478094
C	-0.972266	0.044727	1.065499
H	2.362957	-1.265898	0.730351
H	2.600378	-0.648368	-0.913591
H	0.313608	-0.960296	-1.519159
H	0.835801	-2.441542	-0.735104
H	-0.801128	-2.12129	1.018582
H	-2.824236	-0.88894	-0.111603
H	-1.188655	2.118674	0.360846
H	0.966719	1.452621	-1.294843
H	1.07683	2.472262	0.149724
H	-1.154407	0.130061	2.127358
