19

C	2.681675	-0.300165	-0.187185
O	1.623716	-0.013776	0.70967
C	0.380026	0.079669	0.093066
C	0.064726	1.290887	-0.839116
C	-1.188634	1.620538	0.034245
C	-0.859225	0.42075	0.970467
C	-1.4607	-0.95107	0.578784
O	-1.56896	-1.002073	-0.853426
C	-0.298994	-1.285991	-0.261518
H	2.799999	0.489452	-0.942452
H	3.595882	-0.36126	0.407108
H	2.533011	-1.256865	-0.708221
H	0.844897	2.053917	-0.778797
H	-0.135173	1.053713	-1.885158
H	-1.134031	2.588539	0.536086
H	-2.142602	1.540166	-0.487881
H	-0.735616	0.591545	2.039128
H	-2.142357	-1.582592	1.137581
H	0.164713	-2.237533	-0.4998
