19

C	-2.386747	-0.329689	-0.079452
C	-0.885895	-0.219789	0.018282
O	-0.366331	-0.52822	1.353914
C	0.744644	0.37404	1.104593
C	1.846834	-0.375069	0.343566
C	1.218852	-1.123541	-0.814225
C	-0.103918	-1.051392	-0.985956
C	-0.1793	1.168355	0.14261
O	0.313866	1.843842	-0.972217
H	-2.709596	-1.370483	0.030808
H	-2.865577	0.265849	0.70186
H	-2.728425	0.031521	-1.055361
H	1.103476	0.85236	2.019596
H	2.604432	0.334995	-0.014985
H	2.366759	-1.072424	1.012383
H	1.855581	-1.716221	-1.465241
H	-0.621056	-1.555258	-1.796728
H	-0.805304	1.867102	0.701436
H	0.692613	1.180099	-1.563848
