19

C	-2.651473	-0.721072	0.801982
C	-1.802337	-0.32625	-0.392794
O	-0.631565	-1.158574	-0.586283
C	0.30561	-0.047818	-0.565764
C	1.405885	-0.179611	0.442052
C	2.698113	-0.863411	0.061672
C	2.669974	0.627362	0.260039
C	-0.876086	0.890805	-0.251216
O	-1.007949	2.041348	0.03474
H	-3.469762	-0.005457	0.928194
H	-3.079973	-1.715872	0.649622
H	-2.055326	-0.737545	1.71851
H	-2.412396	-0.281419	-1.307269
H	0.725024	0.135678	-1.567279
H	1.062397	-0.323543	1.46198
H	3.182695	-1.477016	0.81237
H	2.788584	-1.243332	-0.950298
H	3.131582	1.044439	1.147273
H	2.745175	1.261846	-0.616578
