19

C	-0.692121	2.166899	0.025506
C	-0.480004	0.687007	0.065596
C	0.648378	-0.032734	0.215159
C	2.049391	0.479439	0.382075
O	2.969934	-0.160058	-0.497161
C	0.399244	-1.527985	0.200321
C	-1.121764	-1.667757	0.024452
C	-1.642718	-0.229829	-0.071854
O	-2.793392	0.107454	-0.239795
H	0.235158	2.725016	-0.12397
H	-1.394618	2.418787	-0.774954
H	-1.151063	2.518413	0.957024
H	2.08655	1.572162	0.277629
H	2.406545	0.240393	1.39212
H	2.72187	0.074766	-1.397587
H	0.970363	-2.002555	-0.604088
H	0.762807	-1.984871	1.129517
H	-1.407173	-2.22093	-0.875034
H	-1.605218	-2.170591	0.867461
