19

C	-0.665791	2.0294	0.0
C	0.901568	1.98155	0.0
C	1.098084	0.464939	0.0
C	0.048556	-0.033286	-1.044364
O	0.048556	-1.446565	-1.168887
C	-0.436476	-2.062553	0.0
O	0.048556	-1.446565	1.168887
C	0.048556	-0.033286	1.044364
C	-0.975311	0.526941	0.0
H	-1.072239	2.531191	0.882789
H	-1.072239	2.531191	-0.882789
H	1.335149	2.459153	-0.883435
H	1.335149	2.459153	0.883435
H	2.107755	0.055802	0.0
H	0.06382	0.383506	-2.0549
H	-1.538823	-2.040992	0.0
H	-0.088041	-3.09819	0.0
H	0.06382	0.383506	2.0549
H	-2.026369	0.238488	0.0
