19

C	-0.735502	2.085566	-0.29674
C	-0.785677	0.625819	0.048205
C	-1.777545	-0.009132	0.984672
C	-1.720535	-0.474108	-0.450379
C	-0.480709	-1.385343	-0.695854
O	0.235532	-1.563352	0.536775
C	0.425033	-0.344819	-0.21898
C	1.831417	0.031398	-0.551908
O	2.510031	0.579345	0.568955
H	-1.731142	2.535658	-0.232045
H	-0.073423	2.628669	0.387335
H	-0.364805	2.250215	-1.315549
H	-1.45532	-0.664637	1.783582
H	-2.634255	0.616407	1.217295
H	-2.551694	-0.393584	-1.138777
H	-0.364367	-2.150724	-1.454549
H	2.34868	-0.852666	-0.953528
H	1.845208	0.809671	-1.321702
H	2.477722	-0.083243	1.268006
