19

O	-1.726942	-1.430621	0.603713
C	-0.859132	-0.502077	-0.00484
C	-1.616833	0.410033	-0.99403
C	-0.901724	1.64895	-0.389781
C	-0.417919	0.781605	0.810308
C	1.086134	0.713818	1.041333
C	1.601238	-0.198781	-0.079608
O	2.714796	-0.202143	-0.534117
C	0.452995	-1.115377	-0.529534
H	-1.227831	-1.954567	1.239703
H	-1.481111	0.2119	-2.060173
H	-2.683978	0.393223	-0.76254
H	-0.070983	2.007482	-1.00554
H	-1.533917	2.504163	-0.145005
H	-1.010494	0.933468	1.713462
H	1.606115	1.675319	1.025185
H	1.327355	0.230988	1.999071
H	0.483782	-1.268582	-1.611305
H	0.619667	-2.100315	-0.072713
