19

C	-2.100825	-1.454105	-0.295088
O	-1.293715	-0.833018	0.69745
C	-0.161256	-0.248188	0.181
C	-0.100416	1.132633	-0.429268
C	-1.308601	2.028136	-0.249339
C	0.697982	0.812368	0.829318
C	1.955728	-0.055121	0.512295
O	2.04273	-0.295007	-0.904455
C	1.141063	-1.085188	-0.120034
H	-1.55115	-2.243674	-0.825873
H	-2.952139	-1.900644	0.222911
H	-2.463121	-0.725534	-1.03144
H	0.451617	1.268424	-1.352682
H	-1.860759	1.779137	0.661279
H	-1.006325	3.07893	-0.189941
H	-1.998039	1.929985	-1.094673
H	0.539294	1.33226	1.764779
H	2.874051	-0.113284	1.083628
H	1.232399	-2.164621	-0.15525
