19

C	-1.582257	1.918438	-0.251836
C	-1.17078	0.491781	-0.087613
C	-1.913914	-0.609017	-0.208401
C	-1.08176	-1.833521	0.041033
O	0.22381	-1.3309	0.357698
C	0.216384	0.08356	0.244446
C	1.201431	0.825546	1.121302
C	1.487126	0.643084	-0.357488
O	2.44567	-0.27223	-0.777836
H	-1.002395	2.412231	-1.040965
H	-2.640693	1.996729	-0.510451
H	-1.413754	2.488715	0.669517
H	-2.966179	-0.649648	-0.459879
H	-1.445069	-2.440328	0.883739
H	-1.022087	-2.495621	-0.836552
H	0.936779	1.81241	1.488049
H	1.777536	0.21195	1.805798
H	1.430429	1.516279	-1.002509
H	2.052206	-1.146901	-0.6443
