19

C	2.403637	0.551625	0.300107
C	1.020073	0.091557	-0.090324
O	0.986659	-1.091642	-0.925637
C	0.474952	-1.182363	0.400605
C	-1.017605	-1.377739	0.568304
O	-1.81239	-0.577407	-0.279073
C	-1.416996	0.750914	-0.453838
C	-0.909792	1.641116	0.648689
C	0.028876	1.150906	-0.455719
H	2.873157	1.09352	-0.528357
H	2.359231	1.228509	1.159656
H	3.038358	-0.301396	0.553253
H	1.076703	-1.780766	1.08905
H	-1.289946	-2.412636	0.33515
H	-1.264735	-1.204575	1.629902
H	-2.065972	1.203957	-1.194801
H	-1.221858	2.679686	0.649662
H	-0.759699	1.221033	1.637238
H	0.361737	1.868966	-1.200019
