19

C	-0.255758	1.997277	0.0972
C	0.226388	0.766039	-0.687244
C	1.69191	0.42465	-0.41041
O	1.964873	0.090414	0.95284
C	1.774623	-0.985513	-0.000429
C	0.379075	-1.51041	-0.016261
C	-0.487127	-0.546833	-0.357331
C	-1.979291	-0.700827	-0.402243
O	-2.649523	0.029651	0.624468
H	0.266614	2.896206	-0.246133
H	-1.329861	2.149081	-0.019788
H	-0.042963	1.864426	1.161447
H	0.106963	0.967878	-1.76239
H	2.490352	0.949488	-0.929281
H	2.641762	-1.619428	-0.156853
H	0.11671	-2.531969	0.234835
H	-2.380279	-0.302246	-1.341733
H	-2.238373	-1.769657	-0.361094
H	-2.252645	-0.230604	1.462832
