19

C	-2.293946	-3e-06	-0.156296
C	-1.072129	0.756112	-0.6106
C	-1.072122	-0.756104	-0.610611
C	-0.06715	-1.123802	0.475015
C	1.358616	-1.188877	-0.086502
O	1.677474	3e-06	-0.799713
C	1.358611	1.18888	-0.086499
C	-0.067151	1.123797	0.475026
O	-0.11043	-8e-06	1.371348
H	-2.543398	-1.2e-05	0.89919
H	-3.143761	-8e-06	-0.829798
H	-1.086381	1.326009	-1.5315
H	-1.086375	-1.325977	-1.531525
H	-0.309135	-2.019187	1.056162
H	2.055688	-1.340367	0.752686
H	1.481047	-2.012895	-0.797179
H	2.055691	1.340376	0.752679
H	1.481026	2.012901	-0.797177
H	-0.309129	2.019175	1.056186
