19

O	1.926737	-1.076263	-0.313696
C	0.849473	-0.232856	-0.000711
C	1.150775	1.276301	-0.004865
C	-0.269086	1.914155	0.04827
C	-1.18423	0.7515	-0.357151
C	-1.359299	-0.442231	0.64046
C	0.032332	-0.576868	1.288311
O	-1.230365	-1.371201	-0.477295
C	-0.338581	-0.364786	-1.009043
H	2.5964	-0.98145	0.3715
H	1.792498	1.576168	0.830529
H	1.669895	1.54276	-0.932394
H	-0.515282	2.299371	1.043235
H	-0.359859	2.75334	-0.646573
H	-2.108	0.999342	-0.877953
H	-2.252249	-0.596394	1.247335
H	0.219538	0.10648	2.12198
H	0.201888	-1.607329	1.60707
H	-0.104101	-0.463867	-2.068415
