19

C	2.667057	0.241416	0.458847
C	1.81652	-0.662163	-0.446913
C	0.345356	-0.401778	-0.296029
C	-0.538872	-1.031467	0.786905
O	-1.652819	-0.158291	1.034405
C	-1.715612	0.010844	-0.417422
C	-0.864523	-1.28123	-0.646707
C	-0.445492	0.855791	-0.694981
O	-0.289822	2.043952	0.025414
H	3.734839	0.076381	0.286618
H	2.4444	1.295667	0.273075
H	2.460299	0.041929	1.515476
H	2.10482	-0.509452	-1.49537
H	2.027845	-1.716943	-0.226634
H	-0.189146	-1.675289	1.583222
H	-2.708621	0.262273	-0.78277
H	-0.980106	-2.169904	-1.250028
H	-0.324474	1.078028	-1.758745
H	-0.615334	1.843541	0.914394
