19

C	-0.695113	2.205597	0.190626
C	0.005936	0.9416	-0.305681
C	1.516185	0.989713	-0.034096
O	2.15559	-0.21894	-0.414312
C	1.580727	-1.312554	0.24348
O	0.219547	-1.477179	-0.060872
C	-0.545777	-0.344732	0.357037
C	-1.947159	-0.592157	0.037772
C	-3.106107	-0.764096	-0.226628
H	-0.282973	3.094689	-0.297405
H	-1.766572	2.168074	-0.021254
H	-0.569641	2.331802	1.272548
H	-0.141894	0.829833	-1.385556
H	1.99103	1.790876	-0.606987
H	1.69298	1.188032	1.03844
H	2.092695	-2.210118	-0.107527
H	1.706385	-1.20086	1.338749
H	-0.44574	-0.234198	1.453277
H	-4.129519	-0.929403	-0.457868
