19

O	-3.179516	-0.279269	-0.242297
C	-2.125495	0.057423	0.233813
C	-0.784824	-0.086781	-0.44369
C	-0.036108	1.283872	-0.541198
C	1.243468	0.991794	0.272319
C	2.180995	0.061166	-0.52838
C	1.434513	-1.301577	-0.393668
C	0.214341	-0.881871	0.454522
O	0.748976	0.131821	1.310404
H	-2.068002	0.512585	1.249689
H	-0.942114	-0.562918	-1.413427
H	0.158427	1.578708	-1.574445
H	-0.612126	2.083285	-0.065062
H	1.718008	1.865712	0.718068
H	2.304472	0.384124	-1.565044
H	3.170148	0.02029	-0.067446
H	1.150184	-1.738723	-1.353593
H	2.037154	-2.034656	0.146972
H	-0.233174	-1.672976	1.057116
