19

O	2.431976	-0.687583	-0.504616
C	1.801617	0.488849	-0.02859
C	0.319939	0.297362	0.266498
O	-0.233167	1.543367	0.785134
C	-1.296471	1.519326	-0.191028
C	-0.73182	0.261225	-0.884091
C	-1.528798	-1.047452	-0.740586
C	-1.027264	-1.613205	0.571225
C	-0.030417	-0.90579	1.102354
H	2.007312	-0.938694	-1.331168
H	2.312236	0.755922	0.903303
H	1.923414	1.33579	-0.720536
H	-2.281044	1.381325	0.275366
H	-1.31229	2.436729	-0.790737
H	-0.354107	0.439071	-1.893008
H	-2.612768	-0.873284	-0.728138
H	-1.344036	-1.740774	-1.571759
H	-1.45319	-2.510395	1.008605
H	0.483269	-1.133846	2.02924
