19

C	-1.845709	2.032646	0.127268
C	-1.726518	0.580942	-0.370583
C	-2.701527	-0.351129	0.386288
O	-2.656392	-1.68285	-0.07399
C	-0.361897	0.067369	-0.244316
C	0.738352	-0.406666	-0.104034
C	2.105888	-0.88771	0.036746
C	3.136529	0.207645	-0.253273
O	4.164039	0.330365	0.354402
H	-1.586484	2.103257	1.187975
H	-1.175978	2.693444	-0.428394
H	-2.870642	2.394193	-0.002106
H	-2.009549	0.543489	-1.431006
H	-2.491848	-0.28311	1.465952
H	-3.725768	-0.001217	0.221912
H	-1.74309	-1.980492	0.015182
H	2.309999	-1.291101	1.03388
H	2.30018	-1.698835	-0.682128
H	2.861282	0.881664	-1.093145
