19

O	-4.026063	0.306178	-0.435723
C	-3.110535	-0.239558	0.122509
C	-1.679409	-0.252785	-0.364075
C	-0.707009	0.277637	0.717071
C	0.731693	0.188543	0.310418
C	1.586423	1.179185	0.068099
C	2.933945	0.629403	-0.296527
O	2.781689	-0.788265	-0.255782
C	1.455156	-1.125396	0.127113
H	-3.270612	-0.7901	1.080648
H	-1.424253	-1.294586	-0.603194
H	-1.609896	0.334145	-1.283482
H	-0.958421	1.318298	0.94676
H	-0.864059	-0.296529	1.641672
H	1.374513	2.239888	0.126268
H	3.261181	0.939014	-1.30182
H	3.721206	0.942745	0.408118
H	0.997049	-1.760409	-0.648424
H	1.466706	-1.717949	1.057851
