19

C	2.87863	-0.189873	0.35104
C	1.57977	0.218243	-0.307172
O	0.830761	-0.950144	-0.791186
C	-0.317536	-0.504522	-0.113718
C	-1.485165	-1.288469	0.447771
O	-2.342715	-0.135605	0.217875
C	-1.366292	0.521551	-0.634128
C	-0.618496	1.680929	0.068639
C	0.404594	0.646595	0.619875
H	3.525515	-0.704602	-0.366011
H	3.409015	0.69369	0.722746
H	2.691821	-0.864868	1.191678
H	1.761574	0.913511	-1.137334
H	-1.78899	-2.146824	-0.167663
H	-1.452867	-1.583965	1.502471
H	-1.714009	0.626732	-1.665477
H	-0.19707	2.4331	-0.605783
H	-1.220541	2.180811	0.830582
H	0.628158	0.63168	1.687436
