19

C	-3.461589	0.348833	0.526051
C	-2.441695	-0.24374	-0.430559
O	-1.152062	-0.079373	0.12946
C	-0.123999	-0.587171	-0.683941
C	1.20805	-0.219912	-0.055693
C	1.809033	-1.133104	0.935933
O	2.284743	-1.10755	-0.406954
C	1.531524	1.185724	-0.023048
C	1.783174	2.360548	-0.017853
H	-4.471737	0.239968	0.120297
H	-3.419548	-0.157483	1.494512
H	-3.262813	1.41212	0.686302
H	-2.646348	-1.313993	-0.602961
H	-2.492245	0.255788	-1.412438
H	-0.176369	-1.684012	-0.772717
H	-0.179231	-0.165696	-1.700747
H	2.489905	-0.729351	1.681841
H	1.258683	-2.026796	1.226741
H	2.011259	3.397764	-0.006212
