19

C	-3.291656	0.287053	-0.328797
C	-1.893331	-0.273037	-0.314429
O	-1.391358	-0.728232	0.948614
C	-0.765921	0.412102	0.339162
C	0.636682	0.250987	-0.102249
C	1.567371	1.410104	-0.416942
C	1.957559	0.416165	0.629172
O	2.519953	-0.755646	0.042508
C	1.262515	-1.037909	-0.631965
H	-4.029653	-0.5189	-0.259315
H	-3.446203	0.965465	0.514652
H	-3.477468	0.834694	-1.25897
H	-1.65243	-0.943103	-1.142705
H	-0.981945	1.356657	0.842554
H	2.109204	1.445394	-1.358423
H	1.227817	2.371986	-0.042853
H	2.202753	0.641444	1.660759
H	1.385684	-1.141735	-1.716501
H	0.794166	-1.93367	-0.211895
