19

C	2.259333	-1.334819	-0.270728
C	1.397902	-0.17869	0.145528
C	0.467752	-0.226604	1.345935
C	-0.092411	0.071709	-0.008337
C	0.123967	1.524465	-0.408151
C	1.66184	1.29883	-0.201958
O	-1.026402	-0.789152	-0.618816
C	-2.320166	-0.563599	-0.318554
O	-2.740373	0.298055	0.399897
H	2.526689	-1.269392	-1.331452
H	3.191293	-1.360506	0.306188
H	1.744912	-2.288025	-0.113324
H	0.255413	-1.229303	1.704133
H	0.491438	0.536691	2.120977
H	-0.122168	1.708032	-1.456382
H	-0.373765	2.272241	0.213896
H	2.229017	1.424147	-1.127461
H	2.136845	1.891224	0.586145
H	-2.934771	-1.304091	-0.853777
