19

O	2.450318	-0.081885	0.904046
C	1.361417	-0.011536	0.039633
C	1.09918	-1.088935	-0.978505
C	0.175895	-0.920452	0.217594
C	-1.02584	-0.050474	0.005354
C	-2.116416	0.087068	1.034556
C	-2.40264	-0.509308	-0.337254
O	-0.575151	1.11384	-0.665119
C	0.76729	1.360697	-0.256337
H	3.251423	0.059352	0.388203
H	0.735133	-0.813284	-1.963275
H	1.763228	-1.945704	-0.945204
H	0.167013	-1.675908	0.992942
H	-2.111262	-0.571531	1.897072
H	-2.485525	1.088581	1.224607
H	-2.586758	-1.575453	-0.413164
H	-2.961718	0.101233	-1.037533
H	1.258879	1.908864	-1.067584
H	0.814931	1.965852	0.662272
