19

C	-2.720747	0.376464	-0.144865
C	-1.317248	-0.110648	0.101428
C	-0.902834	-1.302345	-0.337677
C	0.455732	-1.930917	-0.186179
O	1.41408	-1.165262	0.518744
C	1.813451	0.008766	-0.146298
C	0.819976	1.169714	-0.009856
O	1.024368	2.227006	-0.552828
C	-0.412625	0.874631	0.835531
H	-3.228227	0.605061	0.800941
H	-2.713125	1.307049	-0.726421
H	-3.319145	-0.361496	-0.685119
H	-1.612799	-1.932075	-0.872602
H	0.367305	-2.873311	0.369492
H	0.847516	-2.196457	-1.185899
H	2.757344	0.331754	0.307547
H	2.008116	-0.164806	-1.216148
H	-0.095859	0.458355	1.797385
H	-0.932951	1.817984	1.010984
