19

O	2.832619	0.466837	0.206486
C	1.953804	-0.292675	-0.608502
C	0.516166	-0.122905	-0.167094
C	-0.098364	1.252089	-0.343629
C	-1.51048	1.358426	0.263717
C	-2.373316	0.173657	-0.086883
C	-1.857237	-1.043594	-0.266608
C	-0.398472	-1.279353	-0.127778
O	0.235822	-0.779528	1.080423
H	2.700427	0.15729	1.110214
H	2.088989	0.075299	-1.63128
H	2.215489	-1.360987	-0.592614
H	0.566096	2.004326	0.092219
H	-0.143961	1.455103	-1.421803
H	-1.429252	1.429194	1.355488
H	-1.984056	2.287745	-0.06943
H	-3.445447	0.328661	-0.170303
H	-2.484528	-1.894385	-0.513232
H	-0.023898	-2.254588	-0.433866
