19

C	-0.046804	1.186299	1.374543
C	-0.412961	0.735914	-0.038908
O	-0.309818	1.801688	-0.966839
C	-1.834683	0.144098	-0.115352
C	-1.628739	-1.377806	0.066775
O	-0.21658	-1.605701	0.152619
C	0.413394	-0.510442	-0.494002
C	1.834746	-0.467897	-0.188267
C	3.013218	-0.376857	0.029924
H	-0.12572	0.353648	2.079272
H	0.983295	1.555005	1.413284
H	-0.719721	1.987093	1.693528
H	0.566265	2.191627	-0.869037
H	-2.495086	0.572168	0.641649
H	-2.251425	0.378208	-1.097579
H	-2.074672	-1.767851	0.98577
H	-2.047314	-1.939674	-0.779483
H	0.291203	-0.578721	-1.589262
H	4.055327	-0.319251	0.227331
