19

O	-2.768875	-0.154575	0.062835
C	-1.672654	0.750813	0.035094
C	-0.333004	0.05619	0.014907
C	0.109846	-1.007803	1.080298
C	1.169768	-1.377121	0.005306
C	0.082986	-1.024602	-1.049275
C	2.056178	-0.11652	-0.016449
C	0.918172	0.927288	-0.012289
O	0.990677	2.127759	-0.026404
H	-2.83614	-0.562099	-0.805913
H	-1.742127	1.447803	-0.813135
H	-1.755098	1.354507	0.944945
H	0.458271	-0.648133	2.053083
H	-0.66217	-1.768441	1.209579
H	1.670093	-2.344351	0.003598
H	0.404492	-0.684287	-2.038512
H	-0.677729	-1.803819	-1.142579
H	2.698527	-0.006013	0.862837
H	2.679709	-0.020119	-0.910899
