19

O	2.193886	-0.938245	-0.787347
C	1.961124	0.26173	-0.069372
C	0.504564	0.426099	0.301234
C	-0.02335	1.768794	0.729753
C	-0.473217	1.140102	-0.587342
C	-1.824288	0.542344	-0.713295
C	-2.045755	-0.69883	-0.287521
C	-0.936779	-1.497486	0.345274
O	0.030535	-0.691899	1.019532
H	1.952258	-1.653533	-0.188838
H	2.571352	0.296147	0.847152
H	2.281839	1.086871	-0.713471
H	-0.734591	1.76511	1.547453
H	0.63846	2.628284	0.689583
H	-0.072927	1.594748	-1.490103
H	-2.612783	1.137945	-1.164746
H	-3.015441	-1.176787	-0.387264
H	-1.332135	-2.173225	1.110401
H	-0.44518	-2.120926	-0.420029
