19

C	-2.85584	0.370249	-0.25492
O	-1.881245	-0.644009	-0.366975
C	-0.705502	-0.403756	0.381855
C	0.107552	-1.676857	0.399041
C	1.391186	-1.484538	0.08433
C	1.630841	-0.053931	-0.220646
O	2.69462	0.481367	-0.42818
C	0.261633	0.657206	-0.203927
C	0.334329	2.010959	0.503165
H	-2.526111	1.317638	-0.705289
H	-3.743801	0.022126	-0.787762
H	-3.122388	0.561033	0.796407
H	-0.985513	-0.128017	1.415018
H	-0.359589	-2.621341	0.654426
H	2.179197	-2.226396	0.057121
H	-0.023035	0.798364	-1.254788
H	1.159657	2.596592	0.08995
H	-0.592158	2.580257	0.387594
H	0.521549	1.884891	1.575175
