19

C	1.719454	1.77985	-5.5e-05
C	0.494677	0.926733	-0.000239
C	-0.785681	1.304221	-0.000258
C	-1.654751	0.109897	4.9e-05
O	-2.850904	0.022375	0.000169
O	-0.834757	-0.991958	0.000189
C	0.551098	-0.593366	-9e-06
C	1.201282	-1.157442	1.269441
C	1.200942	-1.157934	-1.269412
H	2.340384	1.57941	0.881005
H	2.343814	1.575304	-0.877703
H	1.462676	2.841342	-0.00294
H	-1.187186	2.307602	-0.000474
H	1.110635	-2.246725	1.277358
H	2.263687	-0.899908	1.311099
H	0.708075	-0.761763	2.16104
H	1.109666	-2.247165	-1.277106
H	0.707922	-0.762155	-2.161069
H	2.263494	-0.90104	-1.311175
