19

O	4.236183	0.618626	-0.031991
C	2.821734	0.641026	-0.018995
C	2.221194	-0.778139	0.047456
C	0.765967	-0.768761	0.101913
C	-0.43729	-0.710313	0.139343
C	-1.886761	-0.659692	0.197345
C	-2.54432	0.500026	0.997335
C	-3.240408	0.834672	-0.334669
O	-2.509745	-0.19649	-1.032341
H	4.521465	0.260741	-0.878667
H	2.532755	1.19986	0.87583
H	2.40896	1.174359	-0.887178
H	2.55509	-1.350398	-0.829579
H	2.634949	-1.290083	0.924672
H	-2.280899	-1.648273	0.470833
H	-3.188286	0.193468	1.822138
H	-1.833457	1.249595	1.344448
H	-4.322219	0.652072	-0.355486
H	-3.040558	1.828657	-0.750726
