19

O	-2.383819	-0.400441	-0.770163
C	-1.583627	0.158046	0.256046
C	-0.709963	1.327117	-0.363809
C	0.630955	0.68991	-0.045909
C	2.065757	0.505055	-0.536637
O	1.909008	-0.939628	-0.35996
C	0.454179	-0.796855	-0.401277
C	-0.475783	-0.803995	0.828023
C	0.455833	0.25181	1.4577
H	-2.881181	-1.134359	-0.394312
H	-2.211492	0.522427	1.081299
H	-0.922733	1.411547	-1.431846
H	-0.900354	2.289348	0.118462
H	2.229645	0.75423	-1.593602
H	2.880208	0.906697	0.074955
H	0.053902	-1.141816	-1.357073
H	-0.844906	-1.687532	1.356166
H	0.006258	0.980888	2.137755
H	1.365033	-0.167415	1.884361
