19

C	-0.151674	1.760892	0.81186
C	-0.668213	1.204748	-0.499958
C	-1.864208	0.265959	-0.554287
O	-1.726247	-0.864928	0.294854
C	-0.541322	-1.606011	0.025787
C	0.647397	-0.80479	0.55048
O	1.890726	-0.967178	-0.175327
C	1.970567	0.454352	-0.453728
C	0.578697	0.654552	0.12728
H	0.276438	2.758141	0.794197
H	-0.684707	1.512075	1.725295
H	-0.55202	1.843673	-1.37153
H	-2.784529	0.765377	-0.233729
H	-2.00596	-0.070664	-1.595238
H	-0.658148	-2.571457	0.524735
H	-0.414376	-1.778526	-1.054246
H	0.793559	-0.969788	1.626551
H	2.786665	0.930907	0.106602
H	2.099771	0.658902	-1.523456
