19

C	-1.988548	0.860877	0.125077
C	-2.062511	-0.670326	-0.240735
C	-0.53663	-0.652732	-0.159596
O	0.094846	-1.113193	1.039804
C	0.711792	-1.391813	-0.235142
C	1.881731	-0.456995	-0.529888
C	1.759194	0.864811	0.266574
O	0.510171	1.574826	0.165398
C	-0.529118	0.840426	-0.41039
H	-2.698499	1.5397	-0.349831
H	-2.002998	0.99825	1.208249
H	-2.562378	-1.332718	0.466262
H	-2.448326	-0.84615	-1.247854
H	0.783806	-2.444415	-0.499769
H	2.837706	-0.916087	-0.252694
H	1.922361	-0.265076	-1.609753
H	1.937403	0.645476	1.324497
H	2.540062	1.553947	-0.074586
H	-0.564743	1.008515	-1.501534
