19

C	2.484097	0.0	-0.215304
C	0.979216	3e-06	-0.090569
C	0.229721	1.258569	-0.609568
C	-1.160841	1.021104	0.00047
O	-1.865625	-6e-06	-0.744327
C	-1.160835	-1.021108	0.000475
C	0.229728	-1.258568	-0.609562
C	-0.807709	2e-06	1.129328
O	0.585909	6e-06	1.303987
H	2.910555	0.887409	0.261814
H	2.910552	-0.887285	0.262049
H	2.779028	-0.00014	-1.268831
H	0.699982	2.158264	-0.199792
H	0.182501	1.335761	-1.698018
H	-1.772256	1.906988	0.178375
H	-1.772245	-1.906995	0.178385
H	0.699992	-2.158261	-0.199787
H	0.182508	-1.33576	-1.698012
H	-1.343154	3e-06	2.074926
