19

C	1.881061	-0.970211	0.274728
C	1.258166	0.057561	-0.664534
C	0.945402	1.498143	-0.309664
O	-0.483219	1.674808	-0.23115
C	-1.139321	0.637519	0.497478
C	-1.792785	-0.427286	-0.438638
C	-0.751175	-1.593467	-0.441445
C	0.405356	-0.855865	0.189255
O	-0.190189	-0.099722	1.23985
H	2.369238	-1.817258	-0.194337
H	2.340004	-0.636005	1.199465
H	1.313757	-0.176531	-1.723194
H	1.414699	1.785658	0.638133
H	1.275155	2.197107	-1.081192
H	-1.83997	1.113731	1.187956
H	-2.760491	-0.746768	-0.0445
H	-1.948407	-0.00111	-1.431154
H	-1.089989	-2.429319	0.178045
H	-0.526959	-1.968559	-1.441906
