19

C	-1.317413	-1.873995	-0.611584
C	-0.825954	-0.459343	-0.848852
C	-0.883045	0.506095	0.275334
O	-1.520247	0.278894	1.468499
C	-0.509027	1.921094	-0.13416
C	0.828798	1.40471	-0.753167
C	0.528961	-0.016815	-0.282845
C	1.51011	-0.895872	0.3406
O	2.679406	-0.606472	0.490956
H	-0.848129	-2.575468	-1.307179
H	-1.10201	-2.231169	0.400419
H	-2.400954	-1.932519	-0.766415
H	-1.04749	-0.090205	-1.852441
H	-2.073036	-0.50677	1.398949
H	-1.219422	2.423738	-0.799661
H	-0.33773	2.551456	0.740749
H	0.923676	1.523109	-1.837168
H	1.716937	1.814255	-0.271868
H	1.12031	-1.871046	0.707028
