19

C	3.46883	0.461585	0.91259
C	2.982212	-0.072467	-0.446937
C	1.540297	-0.290104	-0.497123
C	0.350192	-0.478535	-0.517716
C	-1.098409	-0.716615	-0.534215
O	-1.466406	-1.900405	0.121875
C	-1.82427	0.48792	0.120513
C	-1.693017	1.838419	-0.53345
O	-2.474425	0.287236	1.120807
H	2.998563	1.420837	1.145517
H	3.22182	-0.238508	1.714911
H	4.553398	0.603572	0.899141
H	3.270152	0.626427	-1.242778
H	3.494322	-1.01554	-0.676638
H	-1.435549	-0.763957	-1.583378
H	-1.953276	-1.603195	0.909416
H	-0.63792	2.090429	-0.669745
H	-2.14758	1.807681	-1.530581
H	-2.192288	2.596395	0.070718
