19

C	-2.238488	-1.229303	-0.042196
C	-0.958523	-0.635871	-0.618988
C	0.32537	-1.183442	0.014659
C	0.366687	-0.08789	1.066236
C	1.385063	-0.069211	-0.033301
O	2.732752	-0.32153	0.12375
C	0.748904	1.131621	-0.733667
C	-0.545972	0.715729	0.0203
O	-1.5606	1.615885	0.286675
H	-3.109319	-0.64048	-0.34418
H	-2.383293	-2.256754	-0.392602
H	-2.205812	-1.246346	1.052035
H	-1.004978	-0.626681	-1.716414
H	0.619227	-2.217343	0.149119
H	0.457668	-0.116743	2.141899
H	3.052353	-0.764248	-0.670305
H	1.162404	2.066774	-0.339198
H	0.708074	1.168821	-1.829154
H	-1.171787	2.428353	0.627136
