19

C	2.495549	0.036934	0.687064
C	1.364604	-0.543583	-0.135704
O	1.445234	-1.611024	-0.699926
C	0.079175	0.259369	-0.225144
C	0.174666	1.635061	-0.764929
O	0.004238	1.407392	0.630692
C	-1.174034	-0.547802	-0.382999
C	-1.970644	-0.931756	0.840717
C	-2.522739	0.071886	-0.140479
H	3.383843	-0.583094	0.56295
H	2.713678	1.072309	0.410595
H	2.200898	0.057997	1.742006
H	1.137181	2.050894	-1.058176
H	-0.691811	2.038401	-1.28506
H	-1.09106	-1.297527	-1.161042
H	-2.40227	-1.925273	0.87564
H	-1.635689	-0.547576	1.797882
H	-3.341496	-0.223899	-0.786555
H	-2.548508	1.106174	0.184483
