19

O	-2.260087	0.247812	-0.787133
C	-1.540213	-0.82419	-0.222431
C	-1.074332	-0.707927	1.203746
C	-0.098443	-0.531415	0.047983
C	1.049216	-1.449033	-0.168783
C	2.198062	-0.769267	-0.213099
C	1.978956	0.716408	-0.032067
C	0.467559	0.864336	-0.292239
O	-0.090591	1.943764	0.423053
H	-3.153276	0.22544	-0.426888
H	-1.820697	-1.805779	-0.604564
H	-1.333005	0.198742	1.740757
H	-1.007777	-1.608339	1.805269
H	0.944308	-2.526347	-0.238086
H	3.181277	-1.210853	-0.327662
H	2.211599	1.032924	0.994213
H	2.580199	1.336989	-0.703728
H	0.317323	1.011477	-1.372436
H	-0.999362	2.019656	0.107103
