19

C	1.233176	1.841917	-0.619587
C	0.932254	0.50537	0.002216
C	2.079697	-0.495552	0.303737
C	1.235348	-1.647183	-0.327243
C	0.07934	-0.654997	-0.610822
C	-0.848336	-0.403536	0.58446
O	0.017856	0.61375	1.134655
C	-2.209677	0.187832	0.271421
O	-2.897156	-0.144489	-0.659042
H	0.312576	2.357347	-0.909174
H	1.768942	2.477497	0.094806
H	1.862167	1.723149	-1.507413
H	3.007139	-0.283086	-0.234567
H	2.301719	-0.584644	1.369014
H	1.678141	-2.052438	-1.239569
H	0.985598	-2.484038	0.330192
H	-0.385447	-0.642586	-1.595415
H	-0.989008	-1.251166	1.27447
H	-2.518236	0.982753	0.987652
