19

C	-1.209086	1.893447	-0.221415
C	-0.935276	0.438881	-0.024041
O	-1.6968	-0.26843	0.972617
C	-1.67924	-0.786477	-0.366784
C	-0.388943	-1.601151	-0.508093
C	0.407121	-0.319647	-0.103977
C	1.40682	-0.234592	1.06084
O	2.396084	0.399511	0.218494
C	1.578445	0.212115	-0.95191
H	-0.802442	2.246272	-1.174193
H	-2.286509	2.077428	-0.211868
H	-0.754388	2.488265	0.57892
H	-2.637438	-0.922233	-0.855656
H	-0.30337	-2.466681	0.154297
H	-0.178409	-1.904826	-1.537949
H	1.111342	0.396114	1.907458
H	1.754781	-1.204023	1.441645
H	1.413015	1.150937	-1.495919
H	2.010101	-0.525364	-1.643347
