19

C	-3.0645	-1.080555	-0.063186
C	-2.352946	0.260863	-0.25387
C	-1.015797	0.333471	0.49284
O	-0.120242	-0.692429	0.023468
C	1.084196	-0.128315	-0.472423
C	2.271999	-0.641339	0.345687
O	3.401374	-0.683065	-0.062348
C	0.922651	1.361682	-0.292279
C	-0.251144	1.61134	0.275756
H	-4.004466	-1.110083	-0.621895
H	-2.432489	-1.902078	-0.410183
H	-3.29686	-1.258227	0.992874
H	-2.164213	0.445458	-1.318107
H	-2.988434	1.081403	0.104002
H	-1.204155	0.156831	1.564763
H	1.250605	-0.411893	-1.522056
H	1.987642	-0.95385	1.375857
H	1.686852	2.069512	-0.583771
H	-0.6503	2.584002	0.5344
