19

C	0.928357	-1.645376	-1.083348
C	0.355586	-0.49525	-0.287405
O	0.85559	-0.493852	1.088962
C	1.528015	0.773082	0.89748
C	0.883367	0.951025	-0.495819
C	-0.362271	1.794463	-0.513028
C	-1.471617	1.069132	-0.373478
C	-1.201116	-0.418664	-0.268402
O	-1.738369	-1.027869	0.888707
H	0.557629	-2.594307	-0.681656
H	0.62228	-1.575451	-2.132767
H	2.021332	-1.655386	-1.0387
H	1.25054	1.506895	1.661627
H	2.61723	0.644095	0.89119
H	1.57247	1.135129	-1.323136
H	-0.326701	2.875742	-0.599308
H	-2.481489	1.461453	-0.326426
H	-1.632671	-0.961041	-1.119933
H	-1.100322	-0.833831	1.591757
