19

C	1.346372	-0.769115	-0.813198
C	1.337734	0.780574	-0.814966
C	0.245669	1.349179	0.111467
O	-1.04149	1.178801	-0.520618
C	-1.730518	-0.008128	-0.217986
O	-1.029485	-1.187581	-0.521962
C	0.258196	-1.346985	0.111956
C	0.338035	-0.664847	1.462218
C	0.332238	0.668474	1.461934
H	1.173394	-1.163654	-1.818172
H	2.318282	-1.147119	-0.478817
H	2.306407	1.170075	-0.484424
H	1.157467	1.170871	-1.820317
H	0.366931	2.431489	0.205728
H	-2.03846	-0.0103	0.836693
H	-2.615912	-0.012237	-0.857994
H	0.388681	-2.428167	0.206975
H	0.377843	-1.255309	2.371483
H	0.366805	1.259679	2.370932
