19

C	2.367362	-0.609403	0.173355
C	1.109831	-0.015594	-0.465055
C	0.011857	-1.059189	-0.639612
O	-1.188084	-0.375667	-1.164807
C	-1.729702	-0.364308	0.163224
C	-0.657973	-1.22398	0.743866
C	-0.726962	0.247109	1.119527
C	0.396748	1.043738	0.440841
O	-0.082092	2.163338	-0.282442
H	2.804808	-1.392291	-0.4553
H	3.126938	0.16392	0.323348
H	2.144775	-1.051071	1.151404
H	1.358959	0.454413	-1.421933
H	0.248596	-1.945209	-1.23114
H	-2.80704	-0.343297	0.272854
H	-0.677561	-2.080572	1.401921
H	-1.09115	0.531198	2.10002
H	1.091165	1.450335	1.182108
H	-0.665042	1.800971	-0.962166
