19

C	-3.733724	0.258714	-0.142928
C	-2.313614	-0.042248	-0.039679
C	-1.139893	-0.302954	0.037596
C	0.257551	-0.624988	0.144577
O	0.601362	-1.863764	-0.402914
C	1.043535	-0.16833	1.378206
C	1.31778	0.469693	0.039186
C	0.962438	1.909107	-0.232029
O	2.451586	0.019319	-0.670866
H	-3.923367	1.070986	-0.853625
H	-4.292939	-0.618401	-0.486883
H	-4.151826	0.557573	0.824842
H	1.437661	-1.713535	-0.868421
H	0.533289	0.420172	2.132582
H	1.760124	-0.893424	1.750853
H	0.893821	2.084476	-1.30987
H	0.001754	2.163501	0.220533
H	1.727473	2.579344	0.176875
H	3.225994	0.110905	-0.10621
