19

C	3.047537	-0.539609	0.21119
C	1.92053	0.404661	-0.214739
C	0.537571	-0.032232	0.27523
C	-0.036021	-1.321605	-0.367789
C	-1.537855	-1.096333	-0.424848
O	-2.081198	-0.66621	0.818957
C	-1.851808	0.328409	-0.200395
C	-0.539635	1.038259	0.01078
O	-0.356675	2.225364	-0.083919
H	3.105922	-0.617786	1.302592
H	2.90292	-1.550477	-0.185201
H	4.016079	-0.179855	-0.149024
H	2.107941	1.414662	0.164198
H	1.901032	0.492241	-1.308875
H	0.571079	-0.163807	1.365007
H	0.350103	-1.444839	-1.387225
H	0.212781	-2.228641	0.190326
H	-2.183555	-1.732664	-1.024742
H	-2.723231	0.848628	-0.583938
