19

C	2.106291	0.582927	-1.059354
C	0.977035	0.236836	-0.103869
C	1.268626	-0.876014	0.932508
O	0.157632	-1.674673	0.466562
C	-0.151112	-0.721042	-0.580501
C	-1.481778	-0.030794	-0.254573
O	-2.543422	-0.261325	-0.770338
C	-1.182191	1.023119	0.8134
C	0.256713	1.472256	0.492714
H	1.743468	1.189899	-1.895903
H	2.886867	1.158425	-0.54786
H	2.57178	-0.317644	-1.472292
H	2.223067	-1.40013	0.79711
H	1.16243	-0.596681	1.988455
H	-0.121735	-1.164152	-1.580076
H	-1.924595	1.822451	0.800761
H	-1.236777	0.533879	1.794009
H	0.231989	2.269555	-0.259268
H	0.788319	1.868653	1.363321
