19

C	-1.762175	0.487227	1.449847
C	-1.101185	0.341864	0.069126
C	-1.278036	1.630789	-0.775572
C	-1.751297	-0.805428	-0.725538
O	-2.706815	-1.434952	-0.362368
C	0.322428	0.016865	0.184107
C	1.487864	-0.279281	0.275416
C	2.910483	-0.614485	0.348324
O	3.745533	0.286751	-0.364295
H	-1.640213	-0.425629	2.036278
H	-1.311798	1.318563	1.997689
H	-2.832783	0.672708	1.33357
H	-0.863249	1.506832	-1.780217
H	-2.339643	1.88148	-0.862599
H	-0.758172	2.463258	-0.294889
H	-1.25366	-1.004712	-1.701073
H	3.25042	-0.574561	1.389104
H	3.055979	-1.65241	0.008494
H	3.414885	0.334773	-1.267308
