19

C	0.348766	-2.164567	0.458923
C	-0.387747	-0.816853	0.448747
C	-1.767599	-1.010871	-0.207581
O	-2.475652	0.172744	-0.504897
C	0.430476	0.301096	-0.276988
C	1.910282	0.233851	0.12239
O	2.790672	-0.120876	-0.612833
C	-0.040308	1.642639	0.05614
C	-0.330003	2.756615	0.407318
H	-0.299707	-2.946978	0.865762
H	0.641421	-2.460621	-0.553945
H	1.254953	-2.137646	1.069586
H	-0.537042	-0.487938	1.485814
H	-1.635761	-1.521754	-1.16929
H	-2.356702	-1.68557	0.435671
H	-2.455809	0.750634	0.265133
H	0.385866	0.130506	-1.358702
H	2.108742	0.547609	1.171045
H	-0.609324	3.745362	0.677064
