19

C	2.478583	0.016951	-0.452416
C	1.027726	-0.016433	0.024497
O	1.080102	-0.449607	1.388489
C	0.201672	-1.027457	-0.808492
C	-1.284481	-0.919503	-0.562464
O	-1.698999	-0.635332	0.78
C	-1.843874	0.403542	-0.231837
C	-0.915214	1.555106	-0.141025
C	0.402348	1.367027	-0.038751
H	2.915307	-0.984419	-0.404967
H	2.548754	0.385259	-1.480179
H	3.064484	0.673368	0.197358
H	0.158616	-0.504944	1.679852
H	0.378505	-0.872207	-1.880424
H	0.55587	-2.033624	-0.558651
H	-1.917369	-1.643357	-1.076086
H	-2.883175	0.615637	-0.470342
H	-1.344129	2.552439	-0.14975
H	1.073756	2.215956	0.058205
