19

O	-3.548992	-0.138265	-0.172506
C	-2.188745	0.06084	-0.520413
C	-1.245347	-0.076823	0.681378
C	0.200767	0.085671	0.31406
C	0.937653	1.340666	-0.172713
C	2.22807	0.513895	0.047442
O	2.15006	-0.521712	-0.974565
C	1.08214	-1.072607	-0.206271
C	1.444149	-0.392873	1.06925
H	-3.804971	0.56711	0.430244
H	-1.95467	-0.707314	-1.264598
H	-2.037367	1.037007	-1.007624
H	-1.522849	0.668721	1.441724
H	-1.409719	-1.059804	1.140415
H	0.766711	1.708108	-1.189981
H	0.8485	2.155673	0.551543
H	3.217194	0.955386	0.146315
H	0.725027	-2.06927	-0.431476
H	1.611487	-0.728419	2.083599
