19

C	-3.010109	0.449523	-0.020734
C	-1.619774	0.385059	0.605868
C	-0.612368	-0.343612	-0.260361
O	-0.903544	-0.917077	-1.28015
C	0.876913	-0.303551	0.217212
C	1.645805	-1.514105	-0.325836
O	0.838721	-0.306699	1.645656
C	1.449392	0.954631	-0.27862
C	1.924498	1.989655	-0.665301
H	-2.988031	0.982525	-0.975261
H	-3.396987	-0.553312	-0.218151
H	-3.707012	0.964764	0.646084
H	-1.218573	1.382988	0.82189
H	-1.636026	-0.120712	1.578711
H	1.226597	-2.427114	0.104091
H	1.558385	-1.56323	-1.411891
H	2.702135	-1.441271	-0.052417
H	1.708906	-0.042147	1.962687
H	2.34305	2.902118	-1.013165
