19

C	-1.484312	1.763081	0.282634
C	-1.02093	0.351021	0.116722
C	-1.430624	-0.936553	0.883409
C	-0.585534	-1.337122	-0.344542
O	-1.344653	-0.358466	-1.159112
C	0.416181	-0.217729	-0.01634
C	1.469962	0.319396	-0.986737
O	2.470698	0.307181	0.059713
C	1.539866	-0.211008	1.03112
H	-1.180393	2.148874	1.260969
H	-1.053927	2.404882	-0.492215
H	-2.574613	1.818722	0.212238
H	-1.011927	-1.100496	1.880476
H	-2.488943	-1.193085	0.817285
H	-0.406977	-2.321001	-0.778878
H	1.734886	-0.343369	-1.819398
H	1.296264	1.329643	-1.377673
H	1.845436	-1.193517	1.415018
H	1.404182	0.473123	1.87978
