19

C	1.248971	2.152569	0.018155
C	0.982041	0.698745	-0.204915
C	-0.126032	0.082464	-0.612453
C	-1.623976	0.120017	-0.371235
O	-2.192699	1.212571	0.295072
C	-1.400643	-1.252406	0.38688
C	-0.031698	-1.389397	-0.367927
O	1.199883	-1.60558	0.3001
C	1.972476	-0.399484	0.178149
H	1.619875	2.342555	1.033592
H	2.019891	2.525798	-0.668162
H	0.345083	2.745414	-0.142664
H	-2.223031	-0.026688	-1.274676
H	-1.673863	1.367993	1.092245
H	-1.236362	-1.078004	1.453407
H	-2.151199	-2.032407	0.238899
H	-0.114158	-2.05318	-1.238865
H	2.779957	-0.539732	-0.559493
H	2.449494	-0.182718	1.144415
