19

C	-2.691205	0.360569	0.321087
C	-1.43871	-0.159393	-0.375291
C	-0.874793	-1.506612	0.098354
O	0.516972	-1.484598	-0.244129
C	0.959704	-0.165929	-0.066887
C	2.332067	0.220464	-0.526414
C	2.042583	0.158729	0.949542
C	-0.214827	0.747718	-0.197334
O	-0.201906	1.953184	-0.143846
H	-2.566826	0.352696	1.409034
H	-2.883993	1.392286	0.015531
H	-3.567588	-0.245916	0.074801
H	-1.608968	-0.216108	-1.460394
H	-1.000887	-1.613232	1.187748
H	-1.318071	-2.375745	-0.391442
H	2.927859	-0.575218	-0.959104
H	2.432138	1.195067	-0.991894
H	2.433412	-0.685915	1.505135
H	1.943485	1.090126	1.49605
