19

C	-2.371033	-0.035464	-0.089805
O	-1.513809	-1.175604	-0.033153
C	-0.210947	-0.663951	-0.274746
C	0.970729	-1.437958	0.264918
C	2.243248	-0.621247	-0.104394
C	2.058569	0.885126	-0.139479
C	0.898514	1.520538	0.045472
C	-0.298756	0.695008	0.391508
O	-1.569882	1.142542	-0.06697
H	-2.957233	-0.020536	-1.018848
H	-3.043125	-0.081271	0.779273
H	-0.072229	-0.502364	-1.356821
H	0.878545	-1.542467	1.351636
H	1.031077	-2.445638	-0.155863
H	3.056314	-0.871437	0.588232
H	2.606009	-0.936629	-1.09308
H	2.957871	1.460128	-0.348632
H	0.818374	2.602	0.00799
H	-0.348032	0.550394	1.486256
