19

O	-2.782062	-0.919687	-0.315748
C	-1.852273	-0.514569	0.664569
C	-0.753747	0.354712	0.056041
O	-1.357068	1.466862	-0.594505
C	0.434441	0.636867	1.012757
C	1.234599	-0.497232	0.288229
C	0.201452	-0.411491	-0.884335
C	2.633136	-0.27031	-0.006389
C	3.790453	-0.063453	-0.260375
H	-2.935456	-0.139103	-0.863903
H	-2.340414	0.053147	1.479585
H	-1.431589	-1.421635	1.11257
H	-1.774569	2.017941	0.078801
H	0.87042	1.617029	0.809448
H	0.267513	0.522645	2.087317
H	1.119239	-1.443073	0.826761
H	0.561029	0.242436	-1.680245
H	-0.164672	-1.347686	-1.307734
H	4.813174	0.113748	-0.483566
