19

C	2.407749	-0.000124	0.03741
C	1.186142	-0.753355	0.496225
O	0.410332	-1.368822	-0.490844
C	-0.866776	-0.782865	-0.66039
C	-1.846367	-0.778919	0.550613
C	-1.84609	0.779014	0.550839
C	-0.866695	0.782939	-0.660324
O	0.410488	1.368782	-0.491013
C	1.186258	0.753354	0.496114
H	3.285223	-0.000137	0.674442
H	2.595662	-0.000227	-1.029805
H	1.224123	-1.290569	1.442047
H	-1.270518	-1.236721	-1.567852
H	-2.811392	-1.248564	0.34737
H	-1.429209	-1.233792	1.451642
H	-2.810968	1.249125	0.347982
H	-1.428537	1.2334	1.451928
H	-1.270608	1.236851	-1.567683
H	1.224337	1.290695	1.44186
