19

C	2.411039	-0.818198	0.397676
O	1.313758	-0.982245	-0.482714
C	0.203798	-0.132124	-0.222235
C	-0.481708	-0.315501	1.153608
C	-2.003991	-0.249453	0.869283
C	-2.091364	-0.50762	-0.613524
C	-0.90064	-0.459219	-1.207164
C	0.62391	1.320334	-0.49241
O	0.328156	2.267743	0.188714
H	2.155927	-1.091126	1.430638
H	3.199878	-1.485189	0.043017
H	2.797302	0.211853	0.400779
H	-0.214457	-1.307895	1.527463
H	-0.159256	0.433748	1.878038
H	-2.578865	-0.971664	1.45947
H	-2.407937	0.742211	1.109786
H	-3.031284	-0.687459	-1.124181
H	-0.69115	-0.586929	-2.262132
H	1.228256	1.429147	-1.422289
