19

C	-2.433823	-0.132919	0.734299
C	-1.074698	0.027014	0.104438
C	-0.634842	-1.039452	-0.958185
O	0.786663	-0.949351	-0.914062
C	1.048772	0.042302	0.126063
C	2.419212	-0.16021	0.705563
O	0.000523	-0.186796	1.044317
C	0.650523	1.385753	-0.49181
C	-0.681502	1.369195	-0.509828
H	-2.585796	0.616749	1.515566
H	-3.219347	-0.009701	-0.01791
H	-2.5364	-1.126087	1.180711
H	-0.954257	-2.041947	-0.649755
H	-1.010123	-0.825059	-1.964877
H	2.611992	0.581703	1.484271
H	2.495294	-1.161874	1.133849
H	3.172834	-0.054566	-0.078744
H	1.335333	2.097117	-0.932835
H	-1.368877	2.062737	-0.975556
