19

C	-2.206321	-1e-06	-0.50168
C	-1.255953	-0.757192	0.393276
O	-0.232737	-1.498202	-0.19353
C	1.115928	-1.075088	0.000125
C	1.532157	-1e-06	-1.040762
C	1.115928	1.075088	0.000123
C	1.324675	0.0	1.099282
O	-0.232736	1.498203	-0.19353
C	-1.255953	0.757193	0.393273
H	-1.953553	-5e-06	-1.555857
H	-3.266444	0.0	-0.274378
H	-1.674164	-1.232975	1.280039
H	1.712756	-1.988643	0.05674
H	2.610795	-1e-06	-1.225439
H	0.990138	-2e-06	-1.988117
H	1.712757	1.988642	0.056737
H	2.366877	0.0	1.428991
H	0.676035	1e-06	1.975896
H	-1.674167	1.232978	1.280034
