19

C	2.430632	-1.019228	-0.718918
C	2.082676	0.310988	-0.043405
C	0.6192	0.444297	0.285492
C	-0.09105	1.749894	0.376988
C	-0.479629	0.738048	-0.717835
C	-1.595229	-0.180426	-0.361545
O	-2.596349	-0.419155	-0.987634
C	-1.193329	-0.852336	0.962552
O	0.174203	-0.552507	1.191485
H	3.505922	-1.091964	-0.904825
H	2.134788	-1.858844	-0.085001
H	1.914664	-1.122256	-1.679246
H	2.650112	0.415856	0.889786
H	2.372272	1.15437	-0.680287
H	-0.781684	1.921132	1.195851
H	0.417652	2.637733	0.018111
H	-0.317459	0.990792	-1.757491
H	-1.829121	-0.484465	1.78073
H	-1.329595	-1.936483	0.89159
