19

O	2.589129	-0.248116	-0.011411
C	1.257613	0.001971	0.424279
C	0.78652	1.379268	-0.099596
C	-0.652375	1.772024	0.149073
C	-1.715832	0.973502	0.03978
C	-1.621297	-0.493751	-0.271275
C	-0.967991	-1.305161	0.878622
C	0.308206	-1.147758	0.027261
O	-0.49253	-0.805399	-1.135231
H	2.584373	-0.246095	-0.975591
H	1.329203	0.025679	1.518015
H	1.456288	2.134893	0.321264
H	0.959936	1.381441	-1.184194
H	-0.817132	2.81542	0.40697
H	-2.710129	1.368635	0.233673
H	-2.555055	-0.883259	-0.687724
H	-0.983053	-0.859227	1.873831
H	-1.311312	-2.340538	0.921536
H	0.905018	-2.049393	-0.14351
