19

C	-1.947318	-6e-06	-1.155852
C	-0.898806	-1e-06	-0.032303
C	-1.552537	5e-06	1.356174
C	0.034197	1.208916	-0.228862
O	1.103943	1.333245	0.70737
C	1.394874	0.760053	-0.568876
C	1.394875	-0.760056	-0.568871
O	1.103946	-1.333241	0.707377
C	0.034197	-1.208916	-0.228855
H	-2.589509	0.884197	-1.088496
H	-1.47755	-1.2e-05	-2.14575
H	-2.58951	-0.884207	-1.088485
H	-2.183625	0.884926	1.490825
H	-2.18362	-0.884918	1.490835
H	-0.782572	1.1e-05	2.130137
H	-0.391456	2.151431	-0.571507
H	2.084642	1.313273	-1.199689
H	2.084643	-1.313275	-1.199685
H	-0.391452	-2.151434	-0.571495
