19

C	-1.373372	2.051621	-0.104664
C	-0.896538	0.608681	-0.370879
C	0.53184	0.450859	-0.09978
C	1.705859	0.334561	0.147275
C	3.127934	0.139056	0.42917
O	3.748612	-0.82049	-0.415858
C	-1.707183	-0.382358	0.454172
C	-2.125866	-1.680845	-0.079917
O	-3.050693	-0.592465	0.025708
H	-1.205681	2.327701	0.940783
H	-0.830096	2.760288	-0.734272
H	-2.442112	2.130535	-0.320616
H	-1.084789	0.376225	-1.427606
H	3.676233	1.074011	0.268299
H	3.254956	-0.122155	1.492236
H	3.213158	-1.620041	-0.383764
H	-1.587637	-0.280122	1.534084
H	-1.846021	-1.957024	-1.095746
H	-2.307412	-2.515228	0.595532
