19

C	2.78798	1.136994	0.286415
C	2.053967	0.064906	-0.527798
C	0.545071	0.143524	-0.365055
C	-0.31912	-1.082144	-0.764554
O	0.211755	-1.828705	0.39025
C	-0.118484	-0.471708	0.905066
C	-1.478491	-0.579298	0.172701
C	-2.330648	0.606954	-0.177026
O	-2.076064	1.758215	0.080817
H	3.869399	1.075303	0.132156
H	2.46661	2.145052	0.00231
H	2.599132	1.020481	1.358977
H	2.296666	0.187255	-1.591505
H	2.393306	-0.932877	-0.236379
H	0.146774	1.11825	-0.654022
H	-0.402779	-1.611966	-1.714572
H	0.067106	-0.275585	1.960814
H	-2.093817	-1.417994	0.510564
H	-3.26956	0.340626	-0.715359
