19

O	3.060608	0.125407	-0.167328
C	1.947079	-0.745433	-0.177645
C	0.784194	-0.15457	0.610136
O	0.472014	1.151769	0.062535
C	-0.893617	1.017856	-0.286874
C	-1.172332	-0.377671	-0.916758
C	-2.578484	-0.363268	-0.276692
C	-1.658321	0.227923	0.814363
C	-0.568114	-0.841181	0.45777
H	2.718205	0.987725	-0.432897
H	1.617704	-0.967013	-1.205741
H	2.271652	-1.686832	0.279783
H	1.081475	-0.028532	1.659612
H	-1.279738	1.940338	-0.71898
H	-0.886582	-0.722918	-1.910596
H	-3.31679	0.311061	-0.720344
H	-3.021283	-1.338202	-0.060055
H	-1.923332	0.578303	1.812508
H	-0.684716	-1.873276	0.78925
