19

C	-2.469243	-0.295151	-0.725851
C	-1.090104	-0.37556	-0.142566
C	-0.596558	-1.275339	0.995711
C	0.676767	-0.392094	1.034847
C	1.378044	-0.688374	-0.32365
O	2.595153	-0.006156	-0.525879
C	0.17302	-0.024851	-0.987309
C	-0.159552	0.74004	0.267239
O	-0.312906	2.094728	0.419829
H	-3.226265	-0.206766	0.062551
H	-2.569427	0.576002	-1.381833
H	-2.710335	-1.186153	-1.316844
H	-1.218418	-1.162983	1.889994
H	-0.447201	-2.342241	0.790384
H	1.275776	-0.276024	1.93617
H	1.585926	-1.740951	-0.543676
H	2.415785	0.938822	-0.446146
H	0.06805	0.301263	-2.015142
H	-0.906101	2.258424	1.162427
