19

C	2.800466	-0.054809	0.444383
C	1.349161	-0.479475	0.522313
C	0.67108	-0.869125	-0.770162
O	-0.632483	-1.411836	-0.521765
C	-1.056784	-0.150872	0.030273
C	-2.362148	0.466627	-0.327351
C	-2.098191	-0.034988	1.089939
C	0.324146	0.446035	-0.118662
O	0.577088	1.743261	-0.516401
H	3.059218	0.637929	1.253518
H	3.463775	-0.921597	0.527538
H	3.017782	0.450054	-0.501465
H	1.059956	-1.028024	1.41734
H	1.17471	-1.137441	-1.690995
H	-2.378239	1.536362	-0.507148
H	-3.033709	-0.116813	-0.947418
H	-1.957738	0.690095	1.885665
H	-2.598236	-0.9487	1.392237
H	0.869257	2.246372	0.251658
