19

C	-2.119046	-1.454347	-0.220799
C	-1.325709	-0.628603	0.803343
C	-0.071482	-0.049172	0.206678
C	-0.056959	1.281722	-0.545104
O	-1.233974	2.009348	-0.357942
C	0.873807	1.135769	0.609142
C	2.114137	0.356711	0.153997
C	1.157445	-0.820752	-0.173698
O	1.346991	-1.978395	-0.427687
H	-2.451425	-0.826105	-1.053047
H	-1.502742	-2.261771	-0.62548
H	-3.005319	-1.89801	0.242929
H	-1.944284	0.185487	1.190817
H	-1.052087	-1.263366	1.654724
H	0.345489	1.331287	-1.559691
H	-1.007493	2.945296	-0.353576
H	0.79202	1.751508	1.4955
H	2.693788	0.782247	-0.671808
H	2.794756	0.07783	0.963311
