19

C	3.270327	0.432827	-0.330432
C	1.993047	0.030665	0.374113
C	1.035251	-0.851747	-0.363714
O	-0.033533	-1.284088	0.488372
C	-0.473653	0.090778	0.656452
C	0.700182	0.612043	-0.170742
C	-1.84281	0.382496	0.041345
C	-2.643292	-0.78989	-0.472567
O	-2.224328	1.52915	-0.00438
H	4.06066	-0.306337	-0.164095
H	3.116037	0.518713	-1.411626
H	3.632068	1.401948	0.028384
H	2.072121	-0.121336	1.449403
H	1.268449	-1.454997	-1.234171
H	-0.500427	0.389546	1.713142
H	0.656876	1.44152	-0.863124
H	-2.106171	-1.277289	-1.292877
H	-2.750414	-1.54908	0.30922
H	-3.620623	-0.446209	-0.812919
