19

C	0.946266	1.843414	0.798879
O	1.725909	0.832879	0.195255
C	1.145333	-0.457721	0.162335
C	2.29591	-1.439498	-0.044214
C	0.094069	-0.600526	-0.967105
C	-1.260231	0.034972	-0.714663
O	-1.767779	0.846549	-1.458788
C	-1.959799	-0.422942	0.480776
C	-2.541473	-0.810422	1.461266
H	0.595291	1.542611	1.797687
H	1.589851	2.72081	0.902025
H	0.075346	2.124324	0.192132
H	0.656947	-0.668073	1.127742
H	1.938643	-2.472873	-0.015848
H	2.778681	-1.263585	-1.010585
H	3.044376	-1.303746	0.740098
H	0.493759	-0.184107	-1.895611
H	-0.089744	-1.672812	-1.116135
H	-3.068639	-1.141635	2.323113
