19

C	2.991773	-0.842846	0.000131
O	1.567033	-0.707415	-8.8e-05
C	1.110045	0.568193	-0.000186
O	1.838465	1.530425	1.2e-05
C	-0.372839	0.63525	-0.000181
C	-1.14802	-0.428131	0.757612
C	-2.632388	-0.045135	0.783853
C	-2.632472	-0.045313	-0.783716
C	-1.148112	-0.428341	-0.757545
H	3.424874	-0.374641	0.887766
H	3.188297	-1.915281	2.2e-05
H	3.425167	-0.374393	-0.887227
H	-0.728474	1.661403	-0.00028
H	-0.636588	-1.093985	1.439946
H	-3.265797	-0.834025	1.19485
H	-2.878276	0.89688	1.283615
H	-3.265931	-0.834292	-1.19446
H	-2.878403	0.896589	-1.283671
H	-0.636776	-1.094392	-1.439758
