19

C	-1.983495	0.825948	-0.46641
C	-2.283427	-0.438738	0.329673
C	-0.875542	-0.059346	-0.00686
O	-0.170264	-0.84094	-0.977099
C	1.196317	-0.835834	-0.53165
C	1.729382	0.595608	-0.689358
O	1.049354	1.313097	0.362371
C	0.194402	0.345191	0.992977
C	1.060395	-0.92476	0.997891
H	-2.21519	0.810096	-1.525463
H	-2.108546	1.790577	0.014184
H	-2.625011	-0.342175	1.355428
H	-2.702317	-1.278865	-0.213364
H	1.743963	-1.614547	-1.06052
H	2.815258	0.668737	-0.546416
H	1.461589	1.011992	-1.666084
H	-0.163116	0.750745	1.938223
H	1.996581	-0.796839	1.543964
H	0.535879	-1.825393	1.320292
