19

C	3.69598	-1.088275	-0.096076
C	2.440461	-0.368295	0.058687
C	1.402949	0.225917	0.20551
C	0.139813	0.960946	0.324302
O	0.264231	2.304403	-0.146845
C	-0.996596	0.215089	-0.356309
C	-2.436166	0.573974	-0.026289
C	-1.86415	-0.743032	0.415764
O	-2.284497	-1.967543	-0.10844
H	3.572619	-1.976691	-0.724993
H	4.460492	-0.455373	-0.560052
H	4.084595	-1.418214	0.873572
H	-0.114087	1.074221	1.386461
H	0.656285	2.262758	-1.026021
H	-0.793106	-0.060592	-1.389047
H	-2.618371	1.346569	0.713789
H	-3.150511	0.570512	-0.844414
H	-1.646591	-0.866359	1.472269
H	-2.582945	-1.82966	-1.012814
