19

C	-1.894506	-1.734682	0.088954
C	-0.640503	-1.187923	-0.597211
C	-0.147864	0.119218	0.030575
O	0.211835	-0.069627	1.433884
C	1.617729	0.101265	1.163375
C	1.350917	0.493623	-0.292796
O	2.052183	-0.293223	-1.215835
C	-1.094108	1.214213	-0.139458
C	-1.846938	2.136354	-0.311785
H	-1.708159	-1.884718	1.155782
H	-2.736704	-1.044092	-0.014611
H	-2.185159	-2.694518	-0.347715
H	0.176842	-1.91264	-0.539417
H	-0.830568	-1.009975	-1.6628
H	2.071719	0.863101	1.805377
H	2.178315	-0.837355	1.251769
H	1.46719	1.5635	-0.494228
H	1.907656	0.062069	-2.098472
H	-2.521631	2.945016	-0.450008
