19

C	2.602903	-1.296402	0.01738
O	1.442262	-0.790772	-0.602706
C	0.508074	-0.23093	0.298705
C	0.849163	1.216869	0.72316
O	0.119757	2.067474	-0.145944
C	-1.144688	1.455389	-0.302811
C	-0.836704	-0.056222	-0.472151
C	-1.912781	-0.929576	-0.038482
C	-2.814324	-1.631353	0.335985
H	2.358858	-2.072849	0.758932
H	3.220476	-1.737679	-0.768297
H	3.187324	-0.511563	0.520943
H	0.391523	-0.887108	1.171365
H	0.546691	1.382921	1.770446
H	1.911669	1.449176	0.620315
H	-1.778932	1.614048	0.583666
H	-1.636626	1.893215	-1.173375
H	-0.596634	-0.253717	-1.521845
H	-3.610354	-2.2567	0.656339
