19

O	-2.98382	-0.208254	-0.688122
C	-1.982189	-0.821495	0.110029
C	-1.047224	0.268828	0.5974
C	0.254858	-0.28271	1.265307
C	1.086906	0.324398	0.135319
C	0.832276	1.814057	0.020451
C	-0.21047	0.90865	-0.519621
C	2.181107	-0.339735	-0.572538
O	2.652514	-1.410255	-0.262602
H	-3.559737	-0.896542	-1.033378
H	-2.418007	-1.34336	0.977118
H	-1.40907	-1.56402	-0.468863
H	-1.617923	0.99075	1.191751
H	0.482533	0.080483	2.271281
H	0.303269	-1.373973	1.266077
H	0.663476	2.377004	0.935531
H	1.437661	2.331907	-0.71778
H	-0.47556	0.895081	-1.569558
H	2.552221	0.218792	-1.464479
