19

C	-2.421977	-0.971932	-0.773216
C	-1.707393	0.189379	-0.067907
C	-1.193431	-0.17834	1.314193
C	0.135977	-0.102298	1.406662
C	0.719919	0.404329	0.124744
C	2.133271	0.090749	-0.294153
O	2.415817	-1.297445	-0.217867
O	0.246875	1.730457	-0.21882
C	-0.426197	0.607896	-0.788854
H	-2.761107	-0.675999	-1.771847
H	-1.755182	-1.834267	-0.879583
H	-3.297347	-1.297497	-0.203264
H	-2.392415	1.045459	-0.005177
H	-1.866641	-0.451329	2.119938
H	0.736311	-0.334395	2.277342
H	2.312637	0.505703	-1.29655
H	2.83927	0.574213	0.390283
H	1.794841	-1.75462	-0.794539
H	-0.352913	0.519949	-1.871921
