19

O	-1.835344	-1.275376	8.5e-05
C	-0.768623	-0.3799	-4.5e-05
C	-1.219456	1.024714	-0.000245
O	-2.403807	1.296937	-0.000143
C	0.465794	-0.884137	0.752117
C	1.557348	0.059105	1.242406
C	2.029745	0.860688	-0.000157
C	1.557465	0.058473	-1.24236
C	0.465871	-0.884523	-0.751697
H	-2.625665	-0.711202	0.000394
H	-0.452902	1.81757	-0.000454
H	0.261916	-1.791718	1.309509
H	1.238151	0.712394	2.060688
H	2.375936	-0.555127	1.634273
H	1.596758	1.865018	-0.000433
H	3.113636	1.001059	-0.000139
H	1.23833	0.711346	-2.060998
H	2.376095	-0.555947	-1.633844
H	0.26209	-1.7924	-1.308645
