19

C	2.785607	-0.616272	0.162786
C	1.551319	-0.567267	-0.748138
C	0.277967	-0.207381	-0.004257
C	0.210779	1.180816	0.620357
O	0.529615	2.210603	-0.303175
O	-0.240789	-1.236425	0.845918
C	-0.977542	-0.919124	-0.352772
C	-2.286843	-0.345791	-0.197543
C	-3.394188	0.111863	-0.099001
H	3.020134	0.362653	0.595156
H	2.625402	-1.315249	0.988886
H	3.665887	-0.945397	-0.396481
H	1.696949	0.158449	-1.556686
H	1.413015	-1.544426	-1.221825
H	-0.807644	1.368909	0.96687
H	0.867752	1.205238	1.50137
H	1.486578	2.263211	-0.379489
H	-0.911568	-1.689806	-1.121059
H	-4.369707	0.521929	-0.007282
