19

C	-2.255251	0.961974	0.400206
C	-1.418798	0.041255	-0.495276
O	-1.829082	-1.31476	-0.387972
C	0.048639	0.140416	-0.176473
C	0.926323	1.419349	-0.22554
C	2.107782	0.449338	-0.237652
C	1.642022	-0.733804	0.628064
O	0.354396	-0.411342	1.15655
C	1.245335	-0.678437	-0.80156
H	-3.316757	0.802446	0.196309
H	-2.065128	0.743236	1.455494
H	-2.018624	2.015732	0.21969
H	-1.564034	0.318876	-1.546624
H	-1.442959	-1.638084	0.436613
H	0.827823	1.93959	-1.181958
H	0.814519	2.117808	0.609417
H	3.152538	0.653981	-0.432584
H	2.290692	-1.395271	1.186456
H	1.343093	-1.350046	-1.64204
