19

O	2.452885	-0.384454	0.422709
C	1.40346	-0.294615	-0.514845
C	0.152569	-1.199513	-0.362271
C	-0.25086	-0.424929	0.932766
C	-1.774059	-0.321144	1.005987
C	-2.100495	-0.080627	-0.495263
C	-0.686321	-0.088478	-1.07804
C	0.264332	0.649209	-0.098896
O	0.292249	2.023334	0.046193
H	3.040352	-1.097733	0.15606
H	1.785095	-0.171617	-1.537632
H	0.078562	-2.272713	-0.530314
H	0.318839	-0.596847	1.844126
H	-2.236147	-1.231649	1.400333
H	-2.091754	0.511384	1.64152
H	-2.725239	-0.869604	-0.925422
H	-2.605732	0.873747	-0.670627
H	-0.557509	0.065351	-2.151294
H	0.980696	2.239229	0.685415
