19

C	2.706988	-0.050624	0.525774
C	1.317756	0.011491	-0.03997
O	0.857037	-1.177074	-0.749868
C	0.155991	-0.762411	0.420262
C	-1.124299	0.032891	0.14138
C	-2.13437	-0.735124	-0.714004
O	-1.664872	0.337546	1.430503
C	-0.576973	1.272789	-0.557692
C	0.753824	1.266003	-0.639666
H	3.453492	0.130639	-0.255479
H	2.841574	0.708999	1.302846
H	2.900271	-1.034683	0.958946
H	0.170586	-1.439172	1.271232
H	-1.666137	-1.077551	-1.639729
H	-2.510932	-1.600934	-0.1614
H	-2.987297	-0.097025	-0.974994
H	-2.468869	0.85172	1.301738
H	-1.234642	2.032124	-0.969728
H	1.37113	2.03202	-1.095013
