19

O	2.81377	0.02699	-0.437209
C	1.620048	0.145148	0.30237
C	0.848806	-1.187475	0.607102
C	-0.388585	-0.527478	0.027454
O	-1.469843	-1.183273	-0.613392
C	-2.392863	-0.163744	-0.140235
C	-1.30079	0.52052	0.717402
C	-0.513224	1.68436	0.049869
C	0.445829	0.646559	-0.590356
H	3.462795	-0.426264	0.111278
H	1.766122	0.765022	1.198917
H	1.217422	-1.970858	-0.06361
H	0.813958	-1.564639	1.633429
H	-2.795165	0.440036	-0.963509
H	-3.221528	-0.613978	0.41669
H	-1.483326	0.55157	1.792318
H	-1.099311	2.26785	-0.666243
H	-0.038838	2.379937	0.749056
H	0.711135	0.714244	-1.645153
