19

O	1.999365	-0.498529	-1.065214
C	1.542908	0.080695	0.157854
C	0.80109	-0.955211	1.017113
C	-0.473116	-1.452514	0.323694
C	-1.413573	-0.360731	-0.181758
O	-2.571107	-0.602431	-0.444103
C	-0.830674	0.994263	-0.429403
C	-0.310256	1.824991	0.740553
C	0.654794	1.239401	-0.240563
H	2.645849	-1.178062	-0.847825
H	2.400041	0.472903	0.727851
H	1.47333	-1.799979	1.211324
H	0.573751	-0.525827	1.999209
H	-0.182969	-2.00629	-0.578843
H	-1.045394	-2.143203	0.947909
H	-1.358419	1.546349	-1.198808
H	-0.509712	2.889364	0.695855
H	-0.372326	1.409001	1.739309
H	1.12275	1.918064	-0.946384
