19

O	-3.125709	-0.947036	-0.253943
C	-2.167395	-0.220231	0.459174
C	-1.99226	1.254093	0.188744
C	-0.974834	0.246015	-0.318116
C	0.40311	0.180877	0.257951
C	1.337474	-0.871783	-0.319463
C	2.688507	-0.78179	0.379239
O	2.77019	0.649592	0.127381
C	1.550017	0.596169	-0.614792
H	-3.993159	-0.714916	0.094512
H	-1.991008	-0.565754	1.478697
H	-2.651953	1.704065	-0.545098
H	-1.711907	1.901785	1.013321
H	-1.039353	0.032131	-1.38209
H	0.48178	0.416892	1.318836
H	0.990281	-1.680797	-0.947928
H	2.728139	-1.019585	1.449305
H	3.493453	-1.30776	-0.146877
H	1.470169	1.193392	-1.516603
