19

C	2.52227	-0.706225	-0.342133
C	1.515997	0.28711	0.209816
O	0.655661	-0.360479	1.234061
C	-0.584351	-0.07568	0.63061
C	-1.984349	-0.669491	0.544806
O	-1.944983	-0.34544	-0.888989
C	-0.473665	-0.340289	-0.864465
C	0.443489	0.905354	-0.78271
C	-0.518551	1.456046	0.293977
H	3.173877	-0.210997	-1.070233
H	3.148345	-1.090695	0.468155
H	2.042623	-1.558011	-0.829313
H	2.044848	1.11182	0.70088
H	-2.040518	-1.753456	0.70204
H	-2.803495	-0.159024	1.059432
H	-0.09181	-1.270486	-1.287782
H	0.854291	1.483083	-1.613272
H	-0.091987	2.09277	1.071432
H	-1.446633	1.861389	-0.101327
