19

O	-2.598803	-0.098183	-0.649161
C	-1.4739	-0.004932	0.213395
C	-0.643534	-1.289718	0.016789
C	0.833199	-1.072183	0.422139
C	0.951324	0.031331	1.526834
C	0.830879	1.094123	0.383334
C	-0.64675	1.282416	-0.035897
C	1.411857	-0.005463	-0.519321
O	2.113047	-0.020933	-1.488977
H	-3.179869	0.647165	-0.466141
H	-1.818248	0.015096	1.257709
H	-1.086731	-2.102115	0.601145
H	-0.701618	-1.585933	-1.036174
H	1.376986	-2.011298	0.536113
H	0.194126	0.043596	2.312261
H	1.944428	0.041404	1.980532
H	1.370123	2.039503	0.463012
H	-1.092627	2.119583	0.514603
H	-0.698974	1.532493	-1.101597
