19

O	2.633924	0.720664	-0.129448
C	2.137509	-0.604923	0.034108
C	0.645743	-0.617057	0.095185
C	-0.248272	-1.277976	-0.653965
C	-1.621698	-0.707715	-0.340595
C	-1.582791	0.752215	-0.890958
O	-0.60599	1.406094	-0.067285
C	-0.163582	0.397239	0.896785
C	-1.45654	-0.37872	1.167189
H	2.040219	1.176275	-0.736918
H	2.490537	-1.274843	-0.765917
H	2.575563	-0.966268	0.973766
H	-0.040135	-1.986377	-1.447291
H	-2.490347	-1.287591	-0.650096
H	-1.281204	0.798887	-1.943389
H	-2.552337	1.253209	-0.776266
H	0.336173	0.915112	1.712685
H	-1.311936	-1.268779	1.780994
H	-2.25222	0.247943	1.579803
