19

O	2.474433	-0.614375	-0.013571
C	1.099377	-0.791808	0.251245
C	0.49235	0.328497	1.094166
C	-1.040999	0.35648	0.946363
C	-1.763801	-0.907535	0.48197
C	-1.152399	-1.191414	-0.921245
C	0.149471	-0.37866	-0.925817
C	-0.168492	0.931304	-0.126361
O	-0.121719	2.23692	-0.570883
H	2.608885	0.312377	-0.245251
H	1.000844	-1.821335	0.611847
H	0.972742	0.812593	1.937657
H	-1.528535	1.045064	1.628855
H	-1.603432	-1.743605	1.170619
H	-2.845023	-0.746511	0.428115
H	-0.979294	-2.257893	-1.09641
H	-1.823256	-0.836108	-1.712206
H	0.655989	-0.28568	-1.886987
H	-0.973673	2.459546	-0.962537
