19

C	1.477834	-1.708345	-0.180507
C	1.366604	-0.237001	0.151467
O	2.25922	0.38888	0.675066
C	0.022851	0.466631	-0.172581
C	0.295474	1.808834	-0.862196
O	-0.793016	-0.36045	-1.012739
C	-2.006925	-0.719042	-0.354406
C	-1.917457	-0.07621	1.000317
C	-0.776063	0.592745	1.106253
H	2.458482	-2.075422	0.124395
H	0.690593	-2.271911	0.331548
H	1.321967	-1.865904	-1.251471
H	0.74157	1.638556	-1.846469
H	-0.639604	2.359208	-0.993084
H	0.990239	2.400855	-0.263459
H	-2.869471	-0.35967	-0.93664
H	-2.091529	-1.815504	-0.297081
H	-2.694518	-0.159941	1.749465
H	-0.411262	1.156632	1.954102
