19

C	-0.345959	0.582481	1.739287
C	0.19728	0.10952	0.377478
C	0.938295	-1.249304	0.565719
O	1.536931	-1.720576	-0.621147
C	1.155925	1.074394	-0.169347
C	1.971961	1.825831	-0.636069
C	-0.913004	-0.109231	-0.658846
C	-2.168029	0.644205	-0.697865
O	-2.125778	-0.694617	-0.187103
H	0.454074	0.584642	2.484139
H	-0.742958	1.598292	1.678032
H	-1.143087	-0.086917	2.070929
H	1.67397	-1.139669	1.37619
H	0.204868	-2.003705	0.866541
H	2.172273	-1.050856	-0.903106
H	2.67422	2.51436	-1.037787
H	-0.541517	-0.542126	-1.585998
H	-2.370215	1.416252	0.040977
H	-2.689663	0.763892	-1.646055
