19

C	1.121195	2.050233	-0.25234
C	1.081865	0.529583	-0.379146
C	0.880028	-0.301704	0.909692
C	-0.537423	0.077842	1.370952
C	-1.254782	0.224373	0.011773
O	-2.406696	0.510912	-0.176726
C	-0.180542	-0.083893	-1.038608
C	0.143694	-1.585507	-0.851076
O	0.829636	-1.648494	0.413045
H	1.231342	2.512734	-1.238216
H	0.213205	2.462051	0.198204
H	1.972431	2.368282	0.358615
H	1.986727	0.180279	-0.887332
H	1.662	-0.24386	1.667091
H	-1.001988	-0.701392	1.980168
H	-0.582181	1.017753	1.930146
H	-0.44438	0.208282	-2.053755
H	-0.749136	-2.220752	-0.824373
H	0.804244	-1.948287	-1.648584
