19

O	2.554549	-0.453791	-0.605312
C	1.621037	0.125443	0.277471
C	0.756464	1.321259	-0.309406
C	-0.582396	0.651984	-0.052492
C	-2.072211	0.696865	-0.371804
C	-2.038087	-0.8759	-0.333532
C	-0.472903	-0.839324	-0.463428
C	0.447803	-0.80322	0.756712
O	-0.408445	0.20736	1.355209
H	2.095255	-0.718933	-1.408667
H	2.197005	0.446419	1.147577
H	0.902277	2.254479	0.238294
H	0.972964	1.488744	-1.368722
H	-2.709749	1.217324	0.34605
H	-2.268786	1.075765	-1.379219
H	-2.400021	-1.296167	0.603825
H	-2.537758	-1.369878	-1.168309
H	-0.083284	-1.146635	-1.437452
H	0.705025	-1.642316	1.406329
