19

O	2.517604	-0.089761	-0.005538
C	1.233243	-0.681745	0.00796
C	0.302983	-0.083502	1.096701
C	-1.014615	-0.87319	1.309371
C	-1.6079	-0.280443	0.006517
C	-1.016149	-0.935758	-1.266422
C	0.303655	-0.137968	-1.109785
C	-0.410986	0.75918	-0.014273
O	-0.462597	2.13679	0.056368
H	2.402526	0.86786	0.004797
H	1.402321	-1.762732	0.033362
H	0.802235	0.344706	1.966741
H	-0.9445	-1.963524	1.379442
H	-1.546803	-0.499845	2.188573
H	-2.666432	-0.017559	0.002084
H	-0.943383	-2.028115	-1.278363
H	-1.557075	-0.616212	-2.162382
H	0.805667	0.229061	-2.006992
H	-0.936012	2.470676	-0.71431
