19

C	-1.683876	1.390815	-0.011584
C	-1.229915	-0.051444	-0.010411
O	-2.326809	-0.942697	-0.082724
C	-0.077197	-0.664501	0.775066
C	-0.078781	-0.669031	-0.759895
C	1.233319	0.109889	-0.973323
C	2.208088	-0.615538	-0.002403
C	1.242251	0.106364	0.979872
O	1.169736	1.192074	0.005024
H	-2.306695	1.581569	0.873069
H	-0.847885	2.084292	-0.000264
H	-2.302247	1.573127	-0.896837
H	-2.910976	-0.736901	0.65565
H	-0.273321	-1.559174	1.354103
H	-0.272331	-1.562689	-1.3409
H	1.509221	0.43433	-1.976331
H	2.244487	-1.707917	-0.004222
H	3.204155	-0.169365	-0.007429
H	1.528849	0.428376	1.980825
