19

C	1.54713	1.745556	0.070365
C	0.834953	0.40588	-0.007842
C	-0.107098	-0.000519	1.144139
C	-1.178099	-0.015787	0.061771
C	-2.24654	-1.015414	-0.226099
C	-2.597208	0.435982	0.08782
O	-0.271589	0.428599	-0.960469
C	1.789049	-0.690788	-0.461993
O	2.197124	-1.584521	0.232108
H	2.027196	1.986019	-0.884173
H	0.827081	2.535865	0.299468
H	2.315137	1.726917	0.850786
H	0.137566	-0.958921	1.603615
H	-0.235878	0.763261	1.913756
H	-2.354563	-1.34	-1.255411
H	-2.459124	-1.776968	0.517254
H	-2.933229	1.05474	-0.737373
H	-3.050543	0.66875	1.046156
H	2.068959	-0.601746	-1.536156
