19

C	2.688984	-0.20012	0.675156
O	2.559599	-0.190919	-0.742941
C	1.681285	0.656771	0.020844
C	0.231933	0.350756	-0.010616
C	-0.678557	1.326706	-0.055513
C	-2.156274	1.048574	-0.04766
C	-2.413046	-0.40938	0.341196
O	-1.551022	-1.280316	-0.369906
C	-0.196518	-1.100355	-0.01352
H	2.385045	-1.121668	1.168364
H	3.596976	0.255452	1.069102
H	1.917428	1.718359	-0.062436
H	-0.356316	2.365019	-0.100941
H	-2.670555	1.718212	0.653865
H	-2.582044	1.257388	-1.038853
H	-2.270926	-0.536263	1.427651
H	-3.433162	-0.717071	0.095971
H	6.4e-05	-1.552236	0.976618
H	0.398035	-1.655032	-0.745899
