19

C	3.406855	-1.369163	0.020361
C	2.183173	-0.584485	-0.04692
C	1.177378	0.077131	-0.092467
C	-0.04651	0.842403	-0.16842
C	-1.291387	0.086318	-0.599456
C	-1.706875	-0.991179	0.408899
O	-2.895932	-1.660322	0.020461
C	0.035308	2.304252	-0.373505
O	-0.262582	1.777417	0.91373
H	3.213261	-2.426531	-0.190071
H	4.148531	-1.014972	-0.703968
H	3.85825	-1.306302	1.016515
H	-2.117171	0.794028	-0.720547
H	-1.102927	-0.376492	-1.577325
H	-0.878135	-1.696392	0.568384
H	-1.925901	-0.520253	1.371769
H	-2.702846	-2.166155	-0.775232
H	1.01288	2.772283	-0.474771
H	-0.78549	2.812363	-0.879238
