19

C	3.172367	0.132737	-0.137051
C	1.909666	-0.731401	-0.190329
C	0.743578	-0.119738	0.578839
O	0.388839	1.180296	0.022785
C	-0.963766	1.026088	-0.305485
C	-1.259168	-0.393146	-0.876466
O	-2.58925	-0.391401	-0.262378
C	-1.718064	0.182001	0.76592
C	-0.588179	-0.848752	0.459345
H	3.984551	-0.319907	-0.7133
H	2.972534	1.126485	-0.546148
H	3.522518	0.257505	0.893676
H	1.604108	-0.885294	-1.23261
H	2.112634	-1.725274	0.22928
H	1.030897	0.030621	1.629316
H	-1.398911	1.922214	-0.742345
H	-1.157775	-0.793619	-1.884462
H	-2.160257	0.468861	1.719633
H	-0.685615	-1.879495	0.795082
