19

C	-0.604575	2.290792	0.317293
C	-0.374005	1.057003	-0.541558
C	-1.293569	-0.154646	-0.297942
O	-2.371155	-0.279067	0.215182
C	-0.14656	-1.157353	-0.500314
O	-0.101021	-2.290732	0.312834
C	0.774886	0.064923	-0.237329
C	2.242139	0.170072	-0.496411
C	1.719265	0.126233	0.924649
H	0.189487	3.030193	0.171131
H	-1.55672	2.762552	0.058018
H	-0.64008	2.029085	1.378654
H	-0.371918	1.320161	-1.607573
H	-0.062984	-1.479309	-1.546569
H	-0.700517	-2.141915	1.054008
H	2.756167	-0.705824	-0.880073
H	2.631176	1.114838	-0.863771
H	1.860613	-0.790046	1.488589
H	1.766705	1.036514	1.513132
