19

C	2.313311	-0.84642	-0.06316
C	1.008215	-0.472784	0.63281
C	-0.218043	-1.275475	0.151511
C	-1.539425	-0.504329	0.559005
C	-0.961575	0.862977	0.965993
C	0.249271	0.729828	0.01412
O	0.98859	1.846893	-0.350491
C	-0.438512	-0.303249	-1.025806
O	-1.860176	-0.266409	-0.846749
H	3.069673	-0.074141	0.103732
H	2.702566	-1.794411	0.32275
H	2.186669	-0.954694	-1.144944
H	1.163265	-0.407166	1.715644
H	-0.250374	-2.359339	0.061563
H	-2.353937	-0.95056	1.127952
H	-1.658636	1.662914	0.701206
H	-0.662622	0.956486	2.012859
H	0.383833	2.521605	-0.677474
H	-0.0872	-0.387854	-2.052206
