19

C	0.821889	2.01667	0.004264
C	0.701598	0.610015	0.570786
C	1.633941	-0.492207	0.035794
O	2.79407	-0.521669	-0.255218
C	0.471725	-1.493945	-0.081891
C	-0.497712	-0.303473	0.151937
C	-1.815899	-0.393528	0.940087
C	-2.468661	0.10114	-0.36453
O	-1.191402	0.12815	-1.038852
H	1.830909	2.403605	0.172618
H	0.623655	2.016033	-1.069911
H	0.110016	2.699382	0.478835
H	0.780395	0.617955	1.667452
H	0.367372	-2.006909	-1.041012
H	0.470626	-2.232414	0.727105
H	-2.09826	-1.401272	1.250775
H	-1.894092	0.280471	1.795615
H	-3.166343	-0.592633	-0.846973
H	-2.926907	1.095906	-0.320631
