19

O	-2.688676	-0.38821	0.128586
C	-1.74615	0.640837	-0.149509
C	-0.366099	0.062603	-0.013334
C	0.269382	-0.363067	1.358663
C	1.636416	-0.211649	0.608965
C	1.529759	-1.333588	-0.448209
C	0.04274	-1.130257	-0.911033
C	0.904349	0.932915	-0.112651
O	1.144309	2.060373	-0.432425
H	-3.571673	-0.01944	0.032248
H	-1.871531	1.035098	-1.170757
H	-1.862927	1.489268	0.542542
H	0.119802	0.376402	2.147837
H	0.019877	-1.36616	1.71122
H	2.582854	-0.065493	1.124913
H	2.247354	-1.207438	-1.262997
H	1.694369	-2.318615	-0.00343
H	-0.038269	-0.888136	-1.974727
H	-0.587295	-1.999545	-0.71349
