19

C	3.544879	-0.200014	0.019516
C	2.116344	0.176378	0.418221
C	1.069639	-0.320929	-0.589814
C	-0.322821	0.084549	-0.233395
O	-0.671258	1.504866	-0.139318
C	-1.928632	0.854047	0.1839
C	-1.722963	-0.328133	-0.810387
O	-1.954879	-1.364116	0.185261
C	-1.271041	-0.332007	0.950061
H	3.810012	0.228792	-0.953161
H	4.269895	0.165454	0.75302
H	3.664208	-1.286747	-0.054677
H	1.886289	-0.238278	1.407638
H	2.025952	1.264074	0.512677
H	1.300383	0.064925	-1.591236
H	1.089964	-1.416295	-0.658421
H	-2.80125	1.465442	0.409555
H	-2.066114	-0.484568	-1.832951
H	-1.082664	-0.492148	2.011389
