19

C	1.372017	2.010954	-0.149329
C	0.332422	0.94727	-0.003599
C	-0.267914	0.312849	1.277637
C	-1.108792	-0.144176	0.063302
C	-2.407412	-0.883534	0.00037
O	-1.063173	1.240681	-0.451353
C	0.224043	-0.413119	-0.746513
C	1.112281	-1.580315	-0.437364
O	1.967351	-1.60671	0.416164
H	1.47098	2.314712	-1.19584
H	1.106762	2.889746	0.445856
H	2.336546	1.629005	0.198036
H	0.333368	-0.4206	1.814069
H	-0.781255	1.02019	1.93105
H	-2.761172	-0.957848	-1.032214
H	-2.293022	-1.893449	0.405948
H	-3.1655	-0.358619	0.589794
H	0.05109	-0.320987	-1.823363
H	0.928909	-2.473493	-1.078848
