19

C	-2.313606	-1.241241	0.499887
C	-1.226673	-0.842619	-0.472625
C	-1.031768	0.555633	-0.974552
O	-1.368821	1.52507	0.018157
C	-0.298843	1.043408	0.875945
C	0.040749	-0.080717	-0.100775
C	1.407666	-0.554321	-0.410871
C	2.468362	-0.62477	0.605902
O	2.46088	0.418751	-0.369243
H	-1.986841	-2.050888	1.160759
H	-2.61572	-0.389704	1.11374
H	-3.200291	-1.587215	-0.041401
H	-1.014581	-1.578272	-1.248246
H	-1.039914	0.871688	-2.011943
H	0.501575	1.786965	0.942566
H	-0.654058	0.774282	1.877296
H	1.475774	-1.241566	-1.255693
H	2.253528	-0.311047	1.626965
H	3.268741	-1.357042	0.507176
