19

C	-2.148532	-0.123969	-1.0971
C	-1.382909	-0.471826	0.190936
C	-1.792178	0.446283	1.353406
C	0.103957	-0.410223	-0.058272
C	0.956671	-1.563614	-0.622459
C	1.329401	-0.920275	0.661461
O	2.065982	0.303439	0.3748
C	0.932612	0.845296	-0.221355
O	0.787413	1.955231	-0.621147
H	-3.228903	-0.179819	-0.93193
H	-1.904921	0.891725	-1.424204
H	-1.891677	-0.810934	-1.909381
H	-1.624713	-1.507253	0.467077
H	-1.270066	0.17694	2.277091
H	-1.558001	1.49082	1.12401
H	-2.868101	0.375659	1.54004
H	0.467547	-2.531952	-0.556562
H	1.590003	-1.421647	-1.492516
H	1.467537	-1.362922	1.63744
