19

C	-2.855561	-0.738612	0.735905
C	-1.967355	0.016658	-0.235437
O	-2.288728	1.082925	-0.708448
C	-0.622027	-0.619201	-0.57157
C	0.467353	-0.097169	0.374339
C	0.924316	1.393898	0.27763
C	2.416938	0.947811	0.214556
C	1.921007	-0.496069	0.03909
O	2.423186	-1.51866	-0.325006
H	-3.219591	-1.655827	0.257296
H	-2.293628	-1.050557	1.623312
H	-3.705618	-0.121104	1.027952
H	-0.665581	-1.710624	-0.495699
H	-0.368537	-0.351088	-1.601589
H	0.243836	-0.379305	1.411519
H	0.577747	1.865755	-0.643303
H	0.650111	2.03017	1.119212
H	3.039087	1.336448	-0.595464
H	2.958498	1.078119	1.157316
