19

O	2.852657	0.39581	0.22523
C	1.940241	-0.267647	-0.634576
C	0.513632	-0.088787	-0.160545
C	-0.014588	1.332726	-0.131258
C	-1.499915	1.431163	0.072761
C	-2.338614	0.399624	0.027732
C	-1.917456	-1.020429	-0.231236
C	-0.420532	-1.225471	-0.191233
O	0.237098	-0.860597	1.029312
H	2.716235	0.023891	1.104585
H	2.077454	0.174892	-1.627185
H	2.164823	-1.342313	-0.706691
H	0.520545	1.889481	0.648401
H	0.262147	1.826719	-1.074398
H	-1.889534	2.428939	0.258578
H	-3.402233	0.564932	0.178496
H	-2.387079	-1.695402	0.498035
H	-2.28727	-1.350647	-1.213438
H	-0.069739	-2.169279	-0.612577
