19

C	-2.328296	-0.051035	0.336879
C	-1.360441	-0.067383	-0.876336
C	-0.574908	1.087889	-0.165898
C	0.918684	1.362451	-0.414621
O	1.736578	0.646889	0.50568
C	1.874492	-0.724065	0.218309
O	0.814098	-1.247061	-0.527417
C	-0.506277	-1.068497	-0.057661
C	-0.906493	0.053611	0.955603
H	-2.961043	0.832393	0.441769
H	-2.887056	-0.969809	0.534753
H	-1.616659	-0.143853	-1.933721
H	-1.141895	2.022522	-0.105362
H	1.204813	1.153532	-1.45448
H	1.135258	2.415267	-0.213736
H	2.762143	-0.912146	-0.403139
H	1.993605	-1.222312	1.192169
H	-0.949015	-2.053285	0.126981
H	-0.646112	0.121243	2.011016
