19

C	0.605949	-0.304186	1.338638
C	1.177216	-1.064669	0.132263
O	2.105388	-0.093266	-0.427873
C	1.341299	1.146174	-0.407418
C	0.044841	0.577772	0.152738
O	-1.156754	1.259561	0.218445
C	-2.207783	0.301881	-0.044024
C	-1.552421	-1.094047	-0.307734
C	-0.107278	-0.727276	-0.668722
H	-0.174116	-0.827674	1.888888
H	1.329027	0.145553	2.02148
H	1.665205	-2.036014	0.173015
H	1.83901	1.884444	0.230524
H	1.236406	1.547649	-1.421048
H	-2.89125	0.280136	0.811575
H	-2.768509	0.654294	-0.917376
H	-1.623347	-1.726202	0.5802
H	-2.061206	-1.619463	-1.118698
H	0.048764	-0.646975	-1.747581
