19

C	-3.127151	0.19555	-0.392841
C	-1.801481	0.154987	0.339012
O	-1.213559	-1.182137	0.304459
C	-0.058889	-0.706836	-0.390977
C	1.114445	-0.284927	0.571004
C	0.594229	1.178355	0.537826
C	-0.574754	0.756288	-0.385579
C	2.475554	-0.519777	-0.023171
O	3.176783	0.329116	-0.515281
H	-3.545114	1.208026	-0.368775
H	-3.005931	-0.107548	-1.437483
H	-3.842799	-0.483836	0.080316
H	-1.923512	0.495892	1.376365
H	0.188825	-1.311477	-1.267969
H	1.040056	-0.821785	1.521608
H	0.308279	1.612046	1.499107
H	1.317538	1.834246	0.049558
H	-0.769752	1.344196	-1.282007
H	2.7949	-1.587433	-0.015786
