19

C	-0.63556	2.21147	-0.242738
C	-0.206999	0.771735	-0.079339
C	1.048943	0.353915	-0.890356
O	1.286905	-1.051126	-0.69507
C	1.725651	-0.135149	0.32449
C	0.510883	0.227978	1.210321
C	-0.572673	-0.870749	1.371086
C	-1.300468	-0.346952	0.084134
O	-1.51138	-1.235565	-0.976366
H	-1.10969	2.367281	-1.219437
H	-1.358035	2.498352	0.528594
H	0.216079	2.898519	-0.172249
H	1.434441	0.786546	-1.807815
H	2.776786	-0.186071	0.585644
H	0.729338	0.888619	2.049256
H	-0.212817	-1.898519	1.289752
H	-1.165691	-0.773917	2.283501
H	-2.276805	0.091996	0.313054
H	-0.656462	-1.652773	-1.1444
