19

C	2.218393	-0.757255	-1.2e-05
C	0.736652	-0.448918	7e-06
C	-0.217073	-1.085107	-1.072998
C	-1.329493	-1.001567	1.8e-05
C	-0.2171	-1.085013	1.073068
O	-1.966402	0.264065	-6.7e-05
C	-1.077327	1.374026	-6e-06
C	0.421532	1.03433	-2.1e-05
O	1.25018	1.912264	4e-06
H	2.70744	-0.331206	-0.88101
H	2.707759	-0.329876	0.880156
H	2.384378	-1.839161	0.000743
H	-0.379324	-0.557171	-2.016363
H	0.076851	-2.118361	-1.275976
H	-2.13183	-1.740042	4.5e-05
H	-0.379367	-0.557007	2.01639
H	0.076817	-2.118252	1.276129
H	-1.273237	1.998777	-0.881179
H	-1.273214	1.998685	0.88124
