19

C	-2.935655	-0.402379	-0.487528
C	-1.988123	0.281808	0.505453
C	-0.539964	-0.04853	0.273195
C	0.19782	-1.416037	0.313833
C	1.314964	-0.425269	-0.024837
O	2.630211	-0.755453	-0.227558
C	0.692216	0.712461	0.86245
O	0.727111	1.718405	-0.196651
C	0.36628	0.483393	-0.888128
H	-2.706505	-0.109209	-1.517432
H	-2.857729	-1.49279	-0.425998
H	-3.976042	-0.130102	-0.286679
H	-2.099464	1.371323	0.440875
H	-2.26162	-0.00024	1.530456
H	0.260842	-1.905741	1.289824
H	-0.062466	-2.138487	-0.464517
H	3.110743	0.058634	-0.424611
H	0.900285	1.017482	1.888433
H	0.188145	0.512831	-1.96332
