19

C	-2.172935	-0.354472	0.229891
C	-1.308245	0.476536	-0.68446
O	-0.520012	1.505358	-0.134604
C	0.687066	1.05425	0.448926
C	1.709931	0.521535	-0.588177
C	1.571536	-1.018204	-0.478773
C	0.321682	-1.153135	0.410353
O	0.448887	-0.041283	1.312024
C	-0.944165	-0.963107	-0.410122
H	-2.111638	-0.117168	1.285325
H	-3.147559	-0.670684	-0.125705
H	-1.698327	0.753563	-1.659145
H	1.048412	1.891777	1.047234
H	1.476519	0.907212	-1.582314
H	2.71669	0.855866	-0.328171
H	1.453836	-1.509281	-1.447742
H	2.43751	-1.458552	0.021912
H	0.294197	-2.063472	1.014179
H	-1.089848	-1.682281	-1.210759
