19

C	3.012926	-0.069784	-0.332026
C	1.53381	-0.09048	-0.091293
C	0.803422	-1.199457	0.061829
C	-0.669141	-1.02086	0.332811
O	-0.847882	0.037617	1.339372
C	-0.68532	0.99964	0.249097
C	0.808842	1.242803	0.012868
C	-1.290045	-0.054351	-0.712654
O	-2.692781	-0.04355	-0.750207
H	3.256669	0.454339	-1.265195
H	3.534362	0.468302	0.470425
H	3.426703	-1.080083	-0.389322
H	1.231387	-2.194306	-0.009447
H	-1.210192	-1.933867	0.590131
H	-1.25903	1.916565	0.414182
H	0.953548	1.832002	-0.903691
H	1.230343	1.841892	0.831956
H	-0.93242	-0.10951	-1.742316
H	-2.993029	0.007063	0.166165
