19

O	2.800342	0.235236	-0.402297
C	1.830296	-0.793867	-0.260597
C	0.471806	-0.270937	0.075638
C	-0.692785	-0.980293	0.746765
C	-1.964394	-0.863008	-0.097283
C	-1.587181	0.15847	-1.209289
C	-0.344975	0.832636	-0.641957
O	-0.711424	1.438543	0.647894
C	-0.140946	0.314596	1.315234
H	2.778451	0.762505	0.403597
H	1.816549	-1.312703	-1.226842
H	2.133148	-1.536282	0.495967
H	-0.489315	-1.881933	1.315497
H	-2.252612	-1.832143	-0.513563
H	-2.803857	-0.501109	0.50312
H	-1.339019	-0.346584	-2.150693
H	-2.383707	0.879549	-1.412096
H	0.181153	1.542671	-1.281242
H	0.216938	0.450214	2.33041
