19

O	3.066432	-0.370421	0.224037
C	2.081169	-0.648762	-0.406613
C	0.817493	-1.243165	0.180026
C	-0.433155	-0.390689	-0.149489
C	-1.670099	-1.12457	0.344181
O	-2.502679	-1.623235	-0.36646
C	-0.365692	0.989115	0.485139
C	0.232511	2.153969	-0.266127
C	-1.253516	2.100433	-0.018169
H	2.039277	-0.490489	-1.509564
H	0.691396	-2.244293	-0.256
H	0.953317	-1.352837	1.260447
H	-0.536032	-0.299749	-1.23726
H	-1.755816	-1.173311	1.455458
H	-0.181199	0.972665	1.556629
H	0.827595	2.86777	0.291689
H	0.581211	1.982887	-1.279195
H	-1.682171	2.783343	0.706292
H	-1.899869	1.885273	-0.862801
