19

C	-3.227397	-0.612475	0.140653
C	-1.901774	0.060762	0.376002
O	-1.469318	0.999471	-0.618774
C	-0.718695	-0.207469	-0.459649
C	0.663209	-0.042038	0.051864
C	1.205084	1.128384	0.805742
C	1.888103	0.680467	-0.474274
C	2.606703	-0.638503	-0.221971
O	1.405602	-1.233175	0.347534
H	-3.318876	-0.938612	-0.898813
H	-3.333098	-1.485265	0.793552
H	-4.052407	0.073703	0.358544
H	-1.71135	0.39696	1.395996
H	-0.822236	-0.922575	-1.27729
H	0.627532	2.040851	0.702867
H	1.680304	0.971306	1.770692
H	2.008244	1.323327	-1.335245
H	2.896564	-1.166832	-1.137041
H	3.443656	-0.638008	0.486466
