19

O	3.028205	-0.592487	0.001187
C	2.289864	0.62102	4.9e-05
C	0.830757	0.270705	-0.000116
C	-0.376112	1.25754	-0.00415
C	-0.997624	-0.164355	-0.001092
C	0.067963	-0.561479	1.075763
C	0.070332	-0.567553	-1.073035
C	-2.438393	-0.532167	-0.000649
O	-3.347339	0.261352	0.001616
H	3.964835	-0.374965	0.001884
H	2.518544	1.233579	0.887684
H	2.518932	1.232193	-0.88845
H	-0.527389	1.855312	0.898064
H	-0.525276	1.850456	-0.909934
H	-0.05456	-0.101321	2.060081
H	0.328671	-1.619262	1.148343
H	0.331409	-1.625669	-1.139065
H	-0.049706	-0.112943	-2.060243
H	-2.633107	-1.630563	-0.001407
