19

C	-2.277146	-1.281222	-0.533694
C	-1.317324	-0.276135	0.034376
C	-1.764923	0.976933	0.746607
C	-0.981356	1.065061	-0.556302
C	0.523548	1.220759	-0.448993
C	0.9225	0.074411	0.514118
O	-0.133584	-0.884574	0.512382
C	2.202252	-0.653913	0.142549
O	3.1615	-0.121358	-0.351287
H	-2.589546	-1.995595	0.234972
H	-3.171153	-0.782444	-0.917278
H	-1.812169	-1.842093	-1.350681
H	-2.820943	1.221571	0.705391
H	-1.278395	1.261819	1.674089
H	-1.481334	1.430834	-1.445754
H	0.99928	1.080689	-1.424224
H	0.844946	2.191424	-0.063185
H	1.064168	0.467688	1.534869
H	2.176517	-1.741795	0.371077
