19

C	0.00021	1e-06	1.5632
C	0.014944	0.742209	0.234496
C	-1.287437	1.191692	-0.384179
C	-2.140108	-0.107148	-0.31757
O	-1.231815	-1.220397	-0.265636
C	-0.014878	-0.742287	0.234487
C	1.287371	-1.191568	-0.384656
C	2.140078	0.107136	-0.3172
O	1.231715	1.2203	-0.266239
H	0.911457	-0.012303	2.151213
H	-0.911284	0.012299	2.150847
H	-1.785368	2.025593	0.118017
H	-1.083645	1.483906	-1.41888
H	-2.77524	-0.106896	0.578761
H	-2.788734	-0.242255	-1.18725
H	1.785283	-2.025951	0.116747
H	1.083361	-1.482863	-1.419591
H	2.774258	0.106762	0.579826
H	2.789637	0.242277	-1.186165
