19

C	2.688576	0.644297	-0.124926
C	1.904182	-0.671621	-0.02347
C	0.417977	-0.469271	0.039407
C	-0.77433	-1.322683	0.410161
O	-1.531758	-0.980153	-0.750383
C	-0.55176	0.061666	-1.054899
C	-1.10167	1.358536	-0.484122
O	-1.225911	1.091772	0.920166
C	-0.454682	-0.054734	1.191596
H	3.76581	0.456835	-0.161443
H	2.418586	1.199581	-1.029845
H	2.484921	1.290699	0.734683
H	2.151924	-1.317191	-0.87628
H	2.2215	-1.219537	0.872436
H	-0.872067	-2.32571	0.811711
H	-0.252135	0.064926	-2.104336
H	-0.421284	2.206623	-0.661806
H	-2.091649	1.596133	-0.884352
H	-0.114011	-0.122453	2.218489
