19

C	-2.048586	-0.612303	-0.021565
O	-1.894167	0.821824	0.104205
C	-0.616932	0.793993	-0.570132
C	-0.643366	-0.762581	-0.629554
C	0.529059	-1.121252	0.301497
C	0.509992	-0.020363	1.373274
C	0.59511	1.106286	0.322222
C	1.818042	0.620134	-0.480484
O	1.724032	-0.820015	-0.440458
H	-2.227024	-1.095188	0.947625
H	-2.870056	-0.869332	-0.701915
H	-0.635888	1.368372	-1.502667
H	-0.566626	-1.26073	-1.595021
H	0.584061	-2.158347	0.634262
H	-0.400391	0.023574	1.971472
H	1.382418	-0.07423	2.028128
H	0.662376	2.132152	0.684943
H	1.807492	0.96116	-1.52377
H	2.764809	0.934615	-0.024586
