19

O	2.019917	-0.816487	-1.20963
C	1.687955	0.175376	-0.246939
C	1.385414	-0.415169	1.149468
C	-0.131676	-0.718638	1.153437
C	-0.737084	0.293404	0.191378
C	-0.308774	1.743992	0.350355
C	0.409672	0.901296	-0.646668
C	-2.030285	0.012982	-0.458448
O	-2.680373	-0.991834	-0.292181
H	1.269699	-1.41621	-1.290711
H	2.555152	0.842794	-0.227102
H	2.002122	-1.298317	1.329686
H	1.634687	0.314172	1.926633
H	-0.348565	-1.725437	0.780981
H	-0.566512	-0.658341	2.155326
H	-0.984574	2.498014	-0.041298
H	0.175402	2.024596	1.279559
H	0.272943	1.110782	-1.702149
H	-2.378038	0.815047	-1.151931
