19

O	-2.950452	0.386774	-0.131035
C	-1.842108	-0.188424	-0.814284
C	-0.639591	-0.093344	0.08216
C	-0.385873	-1.151128	1.143033
C	0.568191	-1.011978	-0.012509
C	1.825658	-0.156554	0.177712
O	2.654743	-0.127585	-0.981773
C	1.266471	1.206923	0.532165
C	-0.0655	1.242492	0.426035
H	-3.688345	0.436141	-0.746184
H	-2.030864	-1.244395	-1.065809
H	-1.646916	0.34429	-1.759092
H	-0.075842	-0.81561	2.127212
H	-1.035317	-2.021544	1.14396
H	0.62194	-1.808805	-0.746016
H	2.471575	-0.560498	0.965912
H	2.177349	0.373894	-1.65246
H	1.907159	2.031451	0.822842
H	-0.69856	2.103634	0.606222
