19

C	3.174567	-0.443809	-0.323662
C	2.126142	-0.01689	0.71335
C	0.753776	0.097102	0.128201
C	-0.184548	-1.031905	-0.365386
C	-1.367216	-0.096424	-0.02177
C	-2.727437	0.010491	-0.539236
O	-2.455873	-0.528733	0.769416
C	-0.392915	0.974593	0.443242
O	0.452273	1.241804	-0.68998
H	2.936754	-1.424291	-0.749291
H	3.22136	0.277271	-1.145003
H	4.167281	-0.508783	0.130711
H	2.099237	-0.738832	1.538961
H	2.398172	0.953295	1.143586
H	-0.057941	-1.331104	-1.408084
H	-0.187933	-1.911323	0.284633
H	-3.232312	0.975176	-0.550281
H	-3.084918	-0.712356	-1.270826
H	-0.52512	1.757422	1.181678
