19

C	3.425645	-0.54877	-0.072179
C	2.046875	-0.082159	-0.040289
C	0.90632	0.302283	-0.000269
C	-0.490499	0.772127	0.053993
C	-0.560151	2.259875	-0.315888
O	-1.0214	0.671943	1.370386
C	-1.354308	-0.060809	-0.926046
C	-1.521355	-1.513074	-0.54719
O	-1.243128	-1.99071	0.527503
H	3.642079	-1.195113	0.785421
H	3.630507	-1.125452	-0.98091
H	4.131239	0.288736	-0.043624
H	0.049765	2.836491	0.382517
H	-0.190559	2.429526	-1.330403
H	-1.595152	2.606587	-0.244536
H	-0.985389	-0.268037	1.599287
H	-2.36724	0.367183	-0.971762
H	-0.955633	-0.013364	-1.946853
H	-1.958548	-2.153256	-1.345039
