19

C	-2.324691	-0.25063	-0.575942
O	-1.988498	-0.630178	0.78862
C	-1.043073	0.437341	0.861365
C	-1.257029	0.839137	-0.58444
C	0.065863	0.261928	-0.136981
C	0.652267	-1.093738	-0.490707
C	2.021968	-0.986905	0.186378
O	2.422331	0.373558	0.034184
C	1.267359	1.203703	-0.035889
H	-2.215241	-1.083042	-1.280505
H	-3.346946	0.140429	-0.61834
H	-0.974985	0.999965	1.786705
H	-1.350048	1.816113	-1.04201
H	0.045393	-1.917498	-0.109529
H	0.766101	-1.207718	-1.574841
H	1.947039	-1.251071	1.253077
H	2.793382	-1.614238	-0.269031
H	1.206172	1.855761	0.848821
H	1.362484	1.849248	-0.91948
