19

C	2.592712	-1.168509	-0.344269
C	1.544791	-0.391367	0.457522
O	1.343345	0.906007	-0.113724
C	-0.033942	1.123793	-0.44048
C	-0.563014	2.349988	0.305928
C	-0.7145	-0.177154	-0.069074
C	-2.145007	-0.468714	-0.267422
O	-2.68339	-1.504118	0.055047
C	0.18244	-1.016172	0.456311
H	2.24586	-1.339861	-1.367213
H	3.524083	-0.597401	-0.382514
H	2.798678	-2.135971	0.125062
H	1.914672	-0.273402	1.49029
H	-0.108315	1.312357	-1.523785
H	-1.597045	2.567599	0.017159
H	-0.528751	2.186524	1.387052
H	0.049346	3.223191	0.065179
H	-2.728697	0.343854	-0.754127
H	-0.030357	-2.01319	0.821207
