19

C	2.979421	-0.406677	-0.053663
C	1.540586	-0.143454	0.382387
C	0.983002	1.232172	-0.042226
C	-0.533321	1.063329	-0.03191
O	-1.370667	1.927417	-0.008752
C	-0.815694	-0.432867	-0.040173
C	-1.998832	-0.944575	0.678726
O	-1.973217	-0.877403	-0.740794
C	0.511653	-1.149053	-0.191691
H	3.313416	-1.400698	0.262085
H	3.072896	-0.353675	-1.144556
H	3.66601	0.329237	0.377177
H	1.489734	-0.202007	1.478065
H	1.302362	2.074184	0.575934
H	1.27956	1.45761	-1.077373
H	-1.956579	-1.945488	1.107099
H	-2.666825	-0.234901	1.163386
H	0.542274	-2.121941	0.305005
H	0.707335	-1.315687	-1.259156
