19

O	-3.002269	-1.104562	0.167866
C	-2.080763	-0.082321	0.393377
C	-1.950665	1.036646	-0.579709
C	-0.890777	-0.063996	-0.548149
C	0.437182	0.263738	0.041077
O	0.550278	1.119905	0.903349
C	1.613578	-0.505966	-0.453491
C	2.723793	-0.797803	0.547981
C	2.949073	0.225643	-0.508192
H	-3.880044	-0.759235	0.362811
H	-1.847336	0.132271	1.43511
H	-2.612661	1.037847	-1.438136
H	-1.635489	2.002773	-0.202138
H	-0.925411	-0.798043	-1.344237
H	1.421077	-1.251364	-1.216249
H	2.543452	-0.442989	1.555967
H	3.219572	-1.758165	0.466795
H	2.919351	1.266673	-0.208162
H	3.604888	-0.00816	-1.338849
