19

C	2.295209	-1.30142	0.403031
O	1.162631	-1.339093	-0.448258
C	0.000182	-0.921858	0.174836
C	-1.093767	-0.398018	-0.698178
C	-2.543247	-0.766075	-0.47644
C	-0.377152	0.566508	0.242559
O	-1.145192	0.97645	1.345031
C	0.519024	1.552134	-0.295622
C	1.27975	2.396023	-0.693281
H	2.157735	-1.951317	1.280391
H	3.143649	-1.66737	-0.179169
H	2.505864	-0.280149	0.745136
H	-0.290543	-1.487086	1.06404
H	-0.789915	-0.279053	-1.73407
H	-2.758444	-1.74523	-0.917029
H	-2.782508	-0.803157	0.587817
H	-3.207762	-0.03144	-0.941827
H	-0.536371	1.241053	2.04372
H	1.938792	3.141139	-1.06463
