19

C	2.597329	0.253346	0.616339
O	2.523261	-0.404518	-0.646275
C	1.363377	0.30221	-0.180876
C	0.173088	-0.546821	0.15453
C	-0.98453	-0.027183	1.083758
C	-1.889307	-1.070973	0.354673
C	-1.019174	-0.623027	-0.841335
O	-1.384817	0.757912	-1.026847
C	-1.408491	1.242841	0.336985
H	2.649855	-0.404204	1.483945
H	3.251365	1.123645	0.656965
H	1.153239	1.210035	-0.744007
H	0.505977	-1.539422	0.466299
H	-0.888461	0.025784	2.167542
H	-1.699866	-2.096918	0.672956
H	-2.960768	-0.867512	0.292188
H	-0.980394	-1.124118	-1.806657
H	-0.714483	2.083007	0.451258
H	-2.417771	1.580196	0.600036
