19

C	-1.914116	1.318483	0.001821
C	-0.604318	0.550702	0.030843
C	0.617033	1.46811	0.143888
O	1.808628	0.863386	-0.318826
C	1.960334	-0.464903	0.146001
C	0.653474	-1.235358	0.046661
C	-0.446997	-0.693918	-0.909307
O	-1.456439	-1.415621	-0.10473
C	-0.566306	-0.761551	0.875856
H	-1.965251	1.971523	-0.876551
H	-2.758581	0.628471	-0.024964
H	-2.011131	1.955355	0.889015
H	0.476846	2.36185	-0.472871
H	0.724028	1.805931	1.190827
H	2.730106	-0.920722	-0.484851
H	2.331989	-0.482112	1.186068
H	0.771491	-2.320174	0.027059
H	-0.52537	-0.76242	-1.994986
H	-0.786264	-0.909221	1.935127
