19

C	-2.35762	-1.100932	-0.378264
C	-0.88471	-0.750391	-0.315088
C	-0.310267	-0.440652	1.052323
C	1.207796	-0.196787	0.957116
O	1.945837	-0.961362	-0.036957
C	1.885373	0.135096	-0.986383
C	0.993072	0.959072	-0.036611
C	-0.529949	0.674021	0.01912
O	-1.469012	1.690049	0.06054
H	-2.763673	-0.918879	-1.380172
H	-2.513133	-2.159757	-0.148449
H	-2.94142	-0.507413	0.330173
H	-0.258421	-1.315024	-1.000055
H	-0.857296	-0.677181	1.957609
H	1.749715	-0.101897	1.900513
H	2.880367	0.566321	-1.151454
H	1.459706	-0.169103	-1.950362
H	1.261642	1.987644	0.197744
H	-1.85425	1.789225	-0.81748
