19

C	-0.09358	1.936576	-0.221639
C	0.171375	0.45505	-0.050444
O	-0.141548	-0.098666	1.224233
C	-0.93699	-0.531851	0.109702
C	-2.374057	-0.13238	0.1314
O	-3.222095	-0.693348	-0.516106
C	1.461016	-0.024611	-0.658401
C	2.736453	0.066985	0.14796
C	2.133867	-1.277665	-0.170261
H	-0.993997	2.255326	0.305355
H	0.754456	2.507339	0.16942
H	-0.202964	2.184794	-1.282258
H	-0.756385	-1.549349	-0.233038
H	-2.609387	0.72054	0.803581
H	1.544639	0.19833	-1.718496
H	3.644586	0.369723	-0.360677
H	2.653762	0.412071	1.172883
H	2.624732	-1.909494	-0.901496
H	1.661201	-1.805791	0.64981
