19

C	2.187199	-1.7e-05	1.292504
C	1.834472	1.5e-05	-0.199335
C	1.007937	-1.233774	-0.59414
O	-0.300442	-1.168969	-0.031106
C	-0.968704	1e-06	-0.446194
O	-0.300457	1.16897	-0.031089
C	1.007923	1.233795	-0.594118
C	-2.315762	-1.4e-05	0.118315
C	-3.437019	-1.9e-05	0.544082
H	1.279822	-0.000139	1.900827
H	2.775269	-0.884939	1.556515
H	2.775088	0.884997	1.55661
H	2.75583	2.8e-05	-0.796446
H	0.934379	-1.305545	-1.692405
H	1.453008	-2.159462	-0.2201
H	-1.024205	8e-06	-1.554313
H	0.934366	1.305576	-1.692383
H	1.452983	2.159485	-0.220069
H	-4.425621	6.6e-05	0.93264
