19

C	3.201585	0.082849	-0.506974
C	2.122396	-0.185093	-0.053846
C	0.818585	-0.488597	0.556645
O	0.174984	0.655311	1.061489
C	-0.314753	1.570717	0.07811
C	-1.512946	1.010857	-0.726026
C	-2.181288	-0.160437	0.006454
C	-1.289767	-1.429254	-0.018101
O	0.056901	-1.165441	-0.410351
H	4.155609	0.314397	-0.912835
H	0.961548	-1.119406	1.448186
H	-0.621535	2.440244	0.665301
H	0.499881	1.881781	-0.587595
H	-2.240703	1.814185	-0.883959
H	-1.181197	0.680214	-1.714184
H	-2.393073	0.129494	1.039795
H	-3.142733	-0.391379	-0.464366
H	-1.307331	-1.940098	0.955069
H	-1.648422	-2.13464	-0.772093
