19

O	2.567851	0.390643	-0.310692
C	1.250701	0.139681	0.107094
C	1.12795	-1.045752	1.014947
C	0.589561	-1.131072	-0.40068
C	-0.910323	-1.194322	-0.6465
C	-1.669274	0.011284	-0.101662
O	-2.736708	-0.087933	0.456015
C	-0.975594	1.342164	-0.340251
C	0.397388	1.385804	0.364389
H	2.535213	0.747699	-1.205265
H	2.039457	-1.588066	1.236898
H	0.414676	-0.989451	1.832129
H	1.198024	-1.71794	-1.082132
H	-1.098138	-1.2027	-1.730368
H	-1.358973	-2.104159	-0.236428
H	-0.824814	1.452499	-1.422781
H	-1.625801	2.150136	0.001311
H	0.958982	2.259029	0.018955
H	0.249769	1.524551	1.441069
