19

C	2.585239	-0.353043	-0.260519
O	1.365244	-1.055044	-0.042992
C	0.313603	-0.248341	0.277806
C	0.035839	0.575629	1.603025
C	-1.252685	0.789346	0.746042
C	-1.165082	-0.74269	0.391916
C	-1.875467	-1.304974	-0.826842
C	-0.283275	0.991543	-0.431083
O	-0.089809	1.716062	-1.359354
H	2.932643	0.135264	0.660098
H	3.323366	-1.095141	-0.569517
H	2.472637	0.402282	-1.046669
H	-0.10724	-0.048003	2.487782
H	0.653122	1.451551	1.808027
H	-2.135897	1.358404	1.016161
H	-1.311753	-1.367439	1.278629
H	-2.949915	-1.40185	-0.64028
H	-1.742174	-0.668852	-1.707722
H	-1.487294	-2.29918	-1.069804
