19

O	-2.824583	0.26109	0.262516
C	-1.47043	0.00246	0.448407
C	-0.805916	-0.861418	-0.558435
C	0.258452	-1.873852	-0.130029
C	1.673905	-1.279037	-0.071739
C	1.69339	0.059819	0.688901
C	0.856466	1.098497	-0.047682
O	1.262547	2.220386	-0.268988
C	-0.47365	0.637998	-0.527532
H	-3.009121	1.151315	0.581578
H	-1.153409	-0.099799	1.487304
H	-1.448854	-1.151572	-1.382789
H	-0.002887	-2.281831	0.854588
H	0.247109	-2.720055	-0.823755
H	2.36005	-1.990498	0.399547
H	2.045916	-1.112281	-1.0902
H	1.285756	-0.08706	1.699532
H	2.703194	0.461945	0.797885
H	-0.92476	1.271222	-1.283274
