19

O	-3.304308	-0.324464	0.337423
C	-2.113432	-0.262581	0.397933
O	-1.362199	0.260906	-0.594646
C	0.042254	0.211115	-0.438382
C	0.778542	1.487111	-0.697835
C	0.781395	0.888607	0.697518
C	1.951111	-0.004965	1.084543
C	2.136772	-0.95872	-0.12393
C	0.734858	-1.103499	-0.758356
H	-1.50837	-0.606105	1.257302
H	1.678742	1.473901	-1.303143
H	0.154527	2.362613	-0.836313
H	0.245073	1.428748	1.469556
H	2.86466	0.554848	1.309843
H	1.689222	-0.571578	1.986172
H	2.829795	-0.517846	-0.846785
H	2.56063	-1.922262	0.168111
H	0.773388	-1.316486	-1.831074
H	0.175393	-1.919775	-0.284835
