19

C	0.096895	1.876144	-0.690184
C	-0.243662	0.652835	0.149565
C	0.853773	0.304954	1.235445
C	1.402813	-0.819164	0.268503
O	2.443361	-0.384758	-0.587463
C	0.040527	-0.722031	-0.3831
C	-1.076673	-1.43368	-0.459981
C	-2.233031	-0.511268	-0.105722
O	-1.628104	0.65018	0.488302
H	-0.540923	1.919187	-1.578047
H	-0.068402	2.786657	-0.10461
H	1.141428	1.843263	-1.008214
H	1.56735	1.094202	1.492499
H	0.402143	-0.116546	2.135044
H	1.645494	-1.784217	0.729394
H	3.227856	-0.248175	-0.045818
H	-1.187458	-2.504755	-0.576109
H	-2.853522	-0.219744	-0.968477
H	-2.899871	-0.979981	0.630472
