19

O	-2.99128	-0.246381	-0.369995
C	-1.602625	-0.103957	-0.453655
C	-0.964841	0.683993	0.648221
C	0.182047	1.643244	0.390399
C	1.240119	1.069853	-0.572276
C	1.725083	-0.304578	-0.1412
O	2.900237	-0.578182	-0.063702
C	0.653744	-1.350273	0.176661
C	-0.723137	-0.815582	0.54904
H	-3.22323	-1.115354	-0.714786
H	-1.217462	0.015184	-1.468075
H	-1.661029	0.993969	1.421622
H	-0.196648	2.592631	-0.006392
H	0.666897	1.878484	1.346244
H	0.809312	0.973112	-1.578395
H	2.108019	1.727953	-0.653092
H	0.59199	-2.009853	-0.702119
H	1.059872	-1.97006	0.981306
H	-1.271719	-1.425762	1.260119
