19

C	-2.899698	-0.168604	-0.448189
O	-1.975929	-0.28872	0.621599
C	-0.670031	-0.110111	0.238749
C	0.219394	-1.092522	-0.52738
C	1.390902	-0.208749	-0.038913
O	2.617568	-0.831844	0.084979
C	1.206348	1.141292	-0.784524
C	-0.060574	1.297377	0.056273
C	0.440637	0.347865	1.129553
H	-2.837106	0.820508	-0.922379
H	-2.731697	-0.936052	-1.216482
H	-3.897021	-0.304057	-0.024312
H	0.239761	-2.066701	-0.031851
H	0.100716	-1.21393	-1.609907
H	3.268214	-0.172972	0.350878
H	1.96899	1.870854	-0.486123
H	1.133783	1.108758	-1.878039
H	-0.664575	2.181958	0.209531
H	0.523962	0.436866	2.202646
