19

O	-2.939828	0.532673	-0.274054
C	-2.030195	-0.548302	-0.122605
C	-0.597526	-0.153398	-0.447328
C	0.466115	-1.117712	0.1342
C	1.845219	-0.923624	-0.515501
C	2.174055	0.55647	-0.533172
C	1.303114	1.412419	0.00201
C	0.048344	0.80207	0.590378
O	0.435214	-0.368725	1.382859
H	-2.942457	0.788366	-1.202157
H	-2.095801	-0.850659	0.92667
H	-2.329109	-1.41285	-0.737804
H	-0.491596	0.132035	-1.499702
H	0.201129	-2.170674	0.275182
H	2.603607	-1.478292	0.052551
H	1.852813	-1.340366	-1.532085
H	3.115998	0.877651	-0.967829
H	1.458409	2.485705	0.021159
H	-0.59083	1.489963	1.145695
