19

C	2.597	-0.552298	-0.443113
C	1.250947	-0.837533	0.211326
C	0.730125	0.312141	1.079965
C	-0.823269	0.226414	1.079679
C	-1.204511	-0.938647	0.184425
O	-2.452296	-0.651784	-0.42376
C	0.018738	-0.558222	-0.696591
C	-0.067833	0.899989	-0.040091
O	-0.073087	2.17155	-0.539883
H	2.8333	-1.306359	-1.201988
H	2.595287	0.429768	-0.928357
H	3.405107	-0.559059	0.296698
H	1.257615	-1.831549	0.67847
H	1.239834	0.838127	1.878274
H	-1.408516	0.677369	1.870667
H	-1.198775	-1.951796	0.614414
H	-2.601335	-1.311044	-1.109615
H	0.029596	-0.804704	-1.758405
H	-0.956234	2.350057	-0.884616
