19

C	-2.522863	-0.513586	-0.515433
C	-1.163712	-0.088154	-0.009093
C	-0.853903	1.406744	-0.061078
C	0.62456	1.748306	-0.31523
C	1.592543	0.805225	0.428399
C	1.371027	-0.607085	-0.076254
O	2.233799	-1.301711	-0.563774
C	-0.052393	-1.080041	0.004319
O	-0.753989	-0.719592	1.206015
H	-3.311785	0.039038	0.006936
H	-2.620829	-0.307144	-1.586134
H	-2.682094	-1.580902	-0.345239
H	-1.474051	1.876727	-0.831556
H	-1.179184	1.826636	0.898846
H	0.833457	1.680872	-1.390091
H	0.819585	2.785983	-0.027174
H	2.635551	1.076786	0.253608
H	1.391544	0.837264	1.505328
H	-0.222227	-2.093286	-0.356231
