19

C	2.318278	-1.081789	0.232094
C	0.960517	-0.598215	-0.294679
C	-0.190618	-1.428056	0.279661
O	-1.389529	-1.255204	-0.45654
C	-2.261331	-0.278696	0.040971
C	-1.731734	1.115752	0.176025
C	-0.484491	1.594971	0.094192
C	0.822335	0.919938	-0.113225
O	1.818008	1.621523	-0.13802
H	2.355718	-1.033501	1.326214
H	2.50189	-2.117511	-0.068133
H	3.117963	-0.44958	-0.153687
H	0.928912	-0.757454	-1.382803
H	0.067205	-2.489501	0.198938
H	-0.347605	-1.208469	1.346837
H	-3.117594	-0.261321	-0.645572
H	-2.670297	-0.577011	1.026468
H	-2.52121	1.835949	0.392986
H	-0.340567	2.664409	0.224998
