19

O	-3.024618	-0.871147	-0.430092
C	-2.069958	-0.211463	0.347209
C	-1.906459	1.254131	0.098018
C	-0.802866	0.288836	-0.298045
C	0.501596	0.257366	0.464161
O	1.082323	-1.053891	0.395213
C	2.424933	-0.983085	-0.07545
C	2.652908	0.467295	-0.396513
C	1.571618	1.168947	-0.081406
H	-2.695259	-1.759728	-0.602678
H	-1.995014	-0.554958	1.37961
H	-2.499876	1.680217	-0.702303
H	-1.750095	1.907493	0.950339
H	-0.711986	0.086282	-1.361503
H	0.287817	0.496055	1.521818
H	3.118549	-1.350596	0.698719
H	2.547228	-1.637382	-0.952534
H	3.578633	0.844426	-0.812526
H	1.427717	2.23633	-0.187755
