19

C	2.861142	0.327105	-0.132959
C	1.481178	0.028972	0.398034
O	0.966882	-1.28307	-0.078357
C	-0.335946	-0.692218	-0.16262
C	-1.607859	-0.558915	-1.038607
C	-1.89477	0.473175	0.141095
C	-1.256432	-0.55606	1.087745
O	-0.859583	1.507857	0.099144
C	0.237571	0.684508	-0.300553
H	2.867227	0.314956	-1.226781
H	3.190241	1.313673	0.210629
H	3.580089	-0.417209	0.222375
H	1.447458	0.059917	1.492449
H	-1.487168	-0.175873	-2.053539
H	-2.322075	-1.383542	-1.003484
H	-2.872613	0.924945	0.2868
H	-0.844779	-0.167227	2.019779
H	-1.860786	-1.448975	1.256813
H	0.534716	0.941639	-1.324142
