19

O	-3.012211	-0.170729	-0.200547
C	-1.745295	0.011122	0.357006
C	-0.674122	0.775551	-0.403545
C	0.38729	1.564925	0.348958
C	1.804761	1.218613	-0.063381
C	2.303564	-0.005691	-0.232434
C	1.619641	-1.334946	-0.044284
O	0.329138	-1.294447	0.54497
C	-0.630853	-0.73338	-0.293662
H	-3.486516	0.664893	-0.135346
H	-1.706075	0.074726	1.445176
H	-0.968141	1.165167	-1.374181
H	0.217419	2.636608	0.199629
H	0.275105	1.393507	1.42668
H	2.474861	2.060674	-0.222017
H	3.344691	-0.103505	-0.539143
H	1.57777	-1.865976	-1.012504
H	2.227333	-1.960552	0.621735
H	-0.881779	-1.3213	-1.177357
