19

O	-2.10175	-1.271634	-0.224295
C	-1.339033	-0.37912	0.013145
O	-1.507913	0.869825	-0.49071
C	-0.483769	1.770832	-0.045584
C	0.608804	0.934194	0.65942
C	1.879521	0.651257	-0.186514
C	1.660253	-0.742852	-0.804147
C	0.907088	-1.504091	0.298271
C	-0.066693	-0.445838	0.857419
H	-0.109211	2.305512	-0.923392
H	-0.945737	2.498613	0.629924
H	0.875232	1.411857	1.60381
H	2.068076	1.430043	-0.931838
H	2.752748	0.624745	0.474652
H	1.032542	-0.669102	-1.700646
H	2.593599	-1.227553	-1.101663
H	0.374026	-2.389561	-0.055558
H	1.601847	-1.817871	1.084972
H	-0.362833	-0.658494	1.88773
