19

O	-0.505491	2.170628	-0.044694
C	-0.805438	0.802166	-0.286207
C	0.339185	-0.014633	0.309148
C	1.684822	0.272044	-0.376173
C	2.840645	-0.370063	0.351885
O	3.661631	-1.094822	-0.148568
C	-2.172427	0.443144	0.346089
C	-2.605443	-0.917731	0.061025
C	-2.937768	-2.04318	-0.199862
H	-1.104229	2.713041	-0.567265
H	-0.863052	0.603892	-1.367599
H	0.408124	0.227914	1.377952
H	0.090306	-1.077478	0.232264
H	1.692385	-0.06901	-1.415754
H	1.846461	1.358337	-0.367208
H	2.890118	-0.116283	1.438155
H	-2.107034	0.608443	1.428665
H	-2.923346	1.151324	-0.029022
H	-3.240305	-3.037113	-0.419524
