19

O	0.56562	1.919746	0.872263
C	0.56832	1.075543	-0.25655
C	-0.69022	0.857197	-1.085161
C	-1.581324	-0.231277	-0.499564
C	-1.471177	-0.599681	0.983432
C	0.023414	-0.963088	1.182062
C	0.711711	-0.472742	-0.099861
O	2.026499	-0.906152	-0.293738
C	-0.345293	-0.620744	-1.245992
H	-0.292751	1.84925	1.299921
H	1.390258	1.416936	-0.892101
H	-1.076025	1.542292	-1.831462
H	-2.544239	-0.331482	-0.989082
H	-1.79617	0.215039	1.641747
H	-2.120688	-1.450638	1.209901
H	0.468898	-0.497341	2.064958
H	0.150191	-2.04929	1.274026
H	2.061037	-1.855535	-0.133022
H	-0.270044	-1.219239	-2.143286
