19

C	-1.785962	-1.139527	1.071851
C	-1.328565	-0.252762	-0.066675
C	0.0981	-0.436736	-0.557336
C	1.169239	0.030142	0.454241
O	1.057048	1.421786	0.744034
C	2.511069	-0.215987	-0.069655
C	3.599051	-0.452767	-0.519414
C	-2.009048	1.035637	-0.3095
O	-2.288108	-0.104842	-1.121606
H	-2.837469	-0.953159	1.302133
H	-1.676705	-2.195085	0.800474
H	-1.198969	-0.96813	1.980854
H	0.270735	-1.495033	-0.785964
H	0.228706	0.126523	-1.485128
H	1.060701	-0.554997	1.382341
H	0.205009	1.556183	1.171887
H	4.567062	-0.653375	-0.907577
H	-2.821197	1.350017	0.345571
H	-1.472703	1.843512	-0.805086
