19

C	-5.9e-05	2.024607	-2.8e-05
C	-1.208201	1.180665	0.459902
C	-1.509673	-0.004145	-0.438135
O	-1.870233	-1.224148	0.225663
C	-0.609576	-1.170929	-0.442305
C	0.609621	-1.170913	0.442255
O	1.870304	-1.224063	-0.225651
C	1.509664	-0.004088	0.438171
C	1.208166	1.180715	-0.459869
H	-0.288306	2.684855	-0.826063
H	0.288129	2.684989	0.825919
H	-1.016501	0.779677	1.459879
H	-2.094948	1.817709	0.547306
H	-2.089255	0.195825	-1.340238
H	-0.536354	-1.793112	-1.334713
H	0.536381	-1.793123	1.334646
H	2.0892	0.195874	1.340302
H	2.09488	1.817811	-0.547221
H	1.016556	0.779708	-1.459856
