19

C	-2.13583	1.686175	0.195983
C	-1.095683	0.687854	-0.30282
C	0.383392	1.087474	-0.070162
C	1.07786	-0.248169	0.073831
C	2.532615	-0.42287	0.020289
O	3.321353	0.483832	-0.130829
C	0.200294	-1.240981	0.275363
C	-1.220876	-0.725369	0.313422
O	-2.155517	-1.483613	-0.442393
H	-2.025411	1.869179	1.271313
H	-2.039928	2.648906	-0.315967
H	-3.147901	1.309741	0.017496
H	-1.236573	0.532292	-1.379695
H	0.804953	1.693003	-0.877235
H	0.497711	1.677223	0.849581
H	2.877887	-1.475971	0.12625
H	0.45691	-2.285425	0.426423
H	-1.555902	-0.657017	1.363812
H	-2.409071	-2.258371	0.068366
