19

C	2.348926	-0.661491	-0.715085
C	1.242719	-0.580697	0.342042
C	0.914249	0.863289	0.735307
O	0.483497	1.683252	-0.360344
C	-0.509896	1.155495	0.54132
C	-1.181404	-0.062676	-0.020417
O	-2.21008	0.101857	-0.942526
C	-1.230613	-1.262125	0.868916
C	-0.103298	-1.127374	-0.142879
H	2.532891	-1.699255	-1.009898
H	2.064318	-0.092556	-1.604667
H	3.289249	-0.248348	-0.3356
H	1.57086	-1.11493	1.244271
H	1.515441	1.378584	1.480883
H	-1.062055	1.89687	1.114026
H	-1.846666	0.592107	-1.689862
H	-1.01101	-1.154423	1.927373
H	-2.003777	-1.985227	0.634273
H	-0.120686	-1.800216	-0.99306
