19

C	-0.685706	0.60156	-0.497495
C	-1.846939	-0.332687	-0.257598
C	-3.240016	0.124673	-0.296576
O	-2.588824	-0.121553	0.950518
C	0.531693	0.205986	0.324628
O	1.044124	-1.098048	-0.103244
C	2.249227	-0.482922	-0.563099
C	2.999009	0.14019	0.570841
C	1.842903	0.884306	-0.067359
H	-0.416764	0.592678	-1.561032
H	-0.98129	1.623963	-0.231277
H	-1.643057	-1.381403	-0.472799
H	-3.454621	1.170923	-0.513488
H	-4.034981	-0.573023	-0.556553
H	0.284918	0.197804	1.39343
H	2.681354	-0.839002	-1.491092
H	2.90474	-0.27925	1.568829
H	3.980382	0.534507	0.324868
H	1.935894	1.862975	-0.519132
