19

O	-2.486173	-0.770452	-0.562996
C	-1.505551	-0.360121	0.00972
C	-1.280029	1.148035	0.188456
O	0.009135	1.506343	0.632992
C	1.00131	1.447735	-0.378861
C	1.528076	0.052022	-0.680127
C	2.161464	-0.815715	0.375173
C	0.843483	-1.228241	-0.23322
C	-0.431268	-1.245393	0.613123
H	-1.549118	1.656207	-0.749116
H	-1.983769	1.48858	0.958043
H	0.60688	1.893491	-1.305716
H	1.818786	2.088958	-0.030857
H	1.990751	-0.002642	-1.662802
H	3.058957	-1.370676	0.124724
H	2.126136	-0.455332	1.399062
H	0.877148	-2.030405	-0.963705
H	-0.81976	-2.263816	0.682327
H	-0.214622	-0.881425	1.622485
