19

C	2.428181	-0.399579	-0.548407
C	2.294095	0.518783	0.636846
C	1.277786	-0.574058	0.419104
C	-0.106314	-0.244487	-0.024558
C	-1.09103	-1.358989	-0.434575
O	-2.167402	-0.7344	0.311529
C	-1.306132	0.309682	0.792374
C	-1.233428	1.512244	-0.153814
O	-0.174371	0.886124	-0.927065
H	2.195462	0.01528	-1.521951
H	3.211607	-1.148722	-0.544246
H	2.987884	0.408525	1.462545
H	1.978529	1.535698	0.434828
H	1.329535	-1.431017	1.08465
H	-1.296716	-1.421977	-1.508261
H	-0.859553	-2.355285	-0.036019
H	-1.369248	0.461743	1.871306
H	-2.135972	1.694091	-0.745994
H	-0.886285	2.446299	0.305614
