19

C	3.591464	0.255157	-0.086254
C	2.209774	-0.171166	0.080788
C	1.065444	-0.518024	0.22335
C	-0.332944	-0.916914	0.363764
C	-0.602013	-2.314654	-0.225679
C	-1.272089	0.139979	-0.27724
O	-2.641986	-0.192721	-0.097864
C	-1.033226	1.529598	0.30521
O	-0.582191	2.470039	-0.288036
H	4.138923	0.211626	0.861644
H	4.119891	-0.380873	-0.804773
H	3.642546	1.285875	-0.453287
H	-0.580237	-0.945013	1.438091
H	-0.013126	-3.070104	0.300123
H	-1.662407	-2.562028	-0.13998
H	-0.323827	-2.340686	-1.283251
H	-1.101866	0.184792	-1.355903
H	-2.821325	-0.24219	0.849079
H	-1.363624	1.616195	1.371816
