19

C	-3.43323	-1.24526	-0.28653
O	-2.628601	-0.327016	0.414618
C	-1.416406	-0.046764	-0.247396
C	-0.650271	0.976066	0.593609
C	0.719236	1.295505	0.015768
O	1.004395	2.390737	-0.421638
C	1.67628	0.204761	0.016435
C	2.477909	-0.698134	0.021519
C	3.455997	-1.7722	0.017935
H	-3.710267	-0.868233	-1.283709
H	-2.928737	-2.216143	-0.415982
H	-4.343103	-1.395594	0.299351
H	-0.818903	-0.964835	-0.371163
H	-1.608666	0.357653	-1.255557
H	-1.215217	1.908541	0.65869
H	-0.528454	0.563402	1.60204
H	3.123544	-2.621807	0.623102
H	3.629838	-2.13115	-1.002478
H	4.416525	-1.425446	0.413829
