19

C	1.579366	0.223614	-0.917742
C	1.48193	-1.141297	-0.20028
C	0.248717	-1.016347	0.709882
O	-0.915336	-1.379802	-0.063971
C	-1.865237	-0.370476	-0.22378
O	-1.298388	0.82103	-0.724741
C	-0.445039	1.388114	0.22952
C	1.046328	1.227491	0.107563
C	0.269952	0.448994	1.165267
H	2.602892	0.462946	-1.214784
H	0.958075	0.232177	-1.818349
H	1.397814	-1.997902	-0.874145
H	2.366145	-1.285592	0.432221
H	0.288448	-1.700745	1.563725
H	-2.579841	-0.725583	-0.969477
H	-2.382241	-0.154674	0.726981
H	-0.817892	2.329851	0.627814
H	1.657042	2.07769	0.389308
H	0.323256	0.671446	2.223826
