19

O	2.663756	0.01491	0.444583
C	1.565086	0.222645	-0.431926
C	0.843224	-1.105104	-0.800616
C	-0.380214	-1.121898	0.113907
C	-0.349904	0.041138	1.092214
C	0.462304	1.055702	0.234858
C	-0.785643	1.218204	-0.698784
C	-1.395076	0.004779	0.00251
O	-2.750463	-0.213255	0.171626
H	2.316671	-0.388873	1.24878
H	1.98929	0.722081	-1.308053
H	0.571365	-1.141138	-1.861301
H	1.514781	-1.947072	-0.609165
H	-0.797127	-2.060157	0.463283
H	-0.450572	-0.024127	2.167055
H	0.830951	1.963988	0.709291
H	-1.346221	2.123539	-0.454305
H	-0.622604	1.175988	-1.782799
H	-3.071542	-0.73027	-0.575436
