19

O	3.417025	0.881456	-0.065232
C	2.61704	-0.26627	0.155962
C	1.128296	-0.005548	-0.087308
C	0.272773	-1.248573	0.221196
C	-1.214177	-1.059324	-0.028951
O	-1.822602	-1.708305	-0.841827
C	-1.948759	0.002785	0.827929
C	-1.949152	1.305893	0.176434
C	-1.943362	2.37147	-0.379407
H	3.349775	1.114129	-0.996811
H	2.953942	-1.117878	-0.457378
H	2.780712	-0.542807	1.203937
H	0.81665	0.847719	0.522772
H	0.976408	0.287419	-1.134348
H	0.593827	-2.099159	-0.387093
H	0.4069	-1.521536	1.277763
H	-2.976579	-0.351612	0.957194
H	-1.485403	0.079303	1.818719
H	-1.947566	3.316618	-0.863413
