19

O	2.715665	-0.98406	0.471521
C	1.649415	-1.041842	-0.472041
C	0.614317	0.012957	-0.206648
C	-0.718003	-0.12752	-0.041187
C	-1.395488	1.196638	0.244198
C	-0.303929	2.235817	-0.107973
C	1.031668	1.457794	-0.040098
C	-1.478462	-1.377709	-0.076963
O	-2.677317	-1.437033	0.103131
H	2.349856	-1.197617	1.336489
H	2.119252	-0.848841	-1.444592
H	1.210371	-2.046213	-0.519854
H	-2.316746	1.320238	-0.331483
H	-1.689346	1.246524	1.30089
H	-0.460647	2.598169	-1.128956
H	-0.319418	3.108289	0.549234
H	1.757813	1.769035	-0.799849
H	1.540169	1.583618	0.925009
H	-0.895185	-2.301265	-0.279836
