19

O	0.665717	-0.224624	1.389515
C	0.521354	0.032005	0.010271
C	-0.261982	-1.123456	-0.657275
C	-1.650401	-1.257037	-0.019795
C	-2.353098	0.070306	0.07152
C	-1.717053	1.236005	-0.020513
C	-0.228533	1.367457	-0.21099
C	1.896706	0.118394	-0.623708
O	2.911039	-0.043162	0.010821
H	1.621196	-0.300516	1.541327
H	-0.362874	-0.918561	-1.730443
H	0.30255	-2.054925	-0.546397
H	-2.254189	-1.966524	-0.597931
H	-1.546911	-1.688428	0.984322
H	-3.427695	0.053839	0.23417
H	-2.273484	2.167452	0.048698
H	-0.016579	1.760817	-1.216932
H	0.181541	2.097362	0.496583
H	1.920435	0.329724	-1.713148
