19

O	-2.61577	0.119652	-0.247149
C	-1.239065	0.376066	-0.447192
C	-0.410614	0.644101	0.845376
C	0.84736	1.454784	0.497746
C	1.511706	0.821214	-0.754498
C	1.150937	-0.661601	-0.740016
O	1.359089	-1.146151	0.624772
C	-0.030852	-0.898367	0.868955
C	-0.398432	-0.903389	-0.631343
H	-2.70744	-0.58024	0.408417
H	-1.201257	1.144869	-1.223999
H	-0.963175	1.048961	1.696213
H	0.590985	2.504217	0.322402
H	1.543794	1.4208	1.339656
H	1.160293	1.285124	-1.683022
H	2.598626	0.943006	-0.723645
H	1.696263	-1.266739	-1.468196
H	-0.448929	-1.529017	1.656361
H	-0.801968	-1.755837	-1.179342
