19

C	-0.25312	2.082059	-0.274593
O	-0.378959	0.910852	-1.080136
C	-0.611321	-0.258098	-0.354547
C	-0.158167	-1.516614	-1.052363
C	0.599067	-1.039968	0.163202
C	1.994042	-0.483321	0.005246
O	2.36702	0.419574	1.04014
C	-1.825188	-0.291425	0.424778
C	-2.834217	-0.30401	1.079841
H	0.575892	1.983524	0.435133
H	-0.05577	2.905452	-0.964149
H	-1.182271	2.284836	0.272395
H	-0.781206	-2.399158	-0.976113
H	0.304467	-1.356962	-2.02069
H	0.429222	-1.600709	1.079875
H	2.711602	-1.316018	-0.063451
H	2.059807	0.087857	-0.923954
H	2.29637	-0.044962	1.880354
H	-3.729176	-0.319006	1.651173
