19

C	-2.215119	-1.283547	0.518335
C	-1.402708	-0.399158	-0.426962
O	-1.745797	0.985875	-0.21031
C	-0.583427	1.782546	0.04886
C	0.536502	0.793279	0.056284
C	0.080389	-0.420737	-0.215091
C	1.204871	-1.405069	-0.236104
O	2.364499	-0.6168	0.068503
C	2.017393	0.76286	0.253763
H	-1.962836	-1.064893	1.559958
H	-3.283426	-1.102038	0.373043
H	-2.016152	-2.342616	0.32212
H	-1.662247	-0.661973	-1.466363
H	-0.471202	2.549065	-0.734595
H	-0.707492	2.312981	1.004975
H	1.098494	-2.205418	0.512235
H	1.334967	-1.891465	-1.215666
H	2.328992	1.089434	1.257982
H	2.563885	1.383271	-0.473749
