19

C	2.689043	0.626904	-0.278957
O	2.510195	-0.775309	-0.065372
C	1.367241	0.007787	-0.421989
C	0.288108	0.143353	0.63709
C	-0.592163	-1.11452	0.690966
O	-1.463699	-1.171476	-0.427564
C	-2.416362	-0.126613	-0.425979
C	-1.824377	1.216457	-0.099354
C	-0.587554	1.346328	0.375005
H	2.916172	1.208442	0.614517
H	3.263932	0.897043	-1.163595
H	0.990988	-0.182972	-1.427218
H	0.794719	0.255229	1.60488
H	0.019537	-2.019761	0.652239
H	-1.16852	-1.124697	1.629915
H	-2.858679	-0.116384	-1.429317
H	-3.238666	-0.351645	0.279274
H	-2.463009	2.081613	-0.258186
H	-0.172064	2.329247	0.580278
