19

C	2.577565	0.232795	0.192085
C	1.193342	0.412309	-0.424544
O	0.715236	-0.838118	-0.953272
C	-0.153428	-1.41859	-0.020987
C	-1.528959	-0.796381	0.156788
O	-1.846412	0.32353	-0.624294
C	-1.126253	1.443297	-0.103528
C	0.115976	0.858979	0.58979
C	-0.420513	-0.484047	1.13058
H	3.258475	-0.210359	-0.539536
H	2.991042	1.195614	0.511543
H	2.532564	-0.429648	1.062814
H	1.251987	1.104113	-1.272462
H	-0.023362	-2.488768	0.104016
H	-2.379531	-1.420615	0.410926
H	-0.888999	2.109817	-0.938352
H	-1.750551	1.992143	0.61802
H	0.515496	1.519082	1.361924
H	-0.40409	-0.744843	2.180532
