19

C	-2.327856	-0.26374	0.401797
C	-0.896637	0.023788	0.035889
C	-0.450677	1.430156	-0.420818
C	1.021513	0.994407	-0.392552
O	1.154491	0.783956	1.024116
C	0.274405	-0.349658	1.094106
C	1.127265	-1.35196	0.298059
C	0.931118	-0.508149	-0.973641
O	-0.480333	-0.701796	-1.143516
H	-2.992923	-0.029965	-0.435043
H	-2.461898	-1.319626	0.656368
H	-2.630629	0.340933	1.261767
H	-0.878838	1.65678	-1.398349
H	-0.61356	2.247739	0.282906
H	1.803861	1.650016	-0.768643
H	-0.016999	-0.561011	2.121109
H	2.136094	-1.39887	0.710267
H	0.710566	-2.349377	0.153063
H	1.476274	-0.742956	-1.885292
