19

C	-1.689053	1.715176	-0.130017
C	-0.708685	0.581898	-0.07331
C	-1.076064	-0.848215	-0.362422
O	-2.460747	-1.063602	-0.363213
C	-0.485236	-0.494865	0.991522
C	1.035811	-0.227272	0.970444
C	1.688603	-0.389764	-0.376554
O	3.070663	-0.178763	-0.446714
C	0.825532	0.824472	-0.129864
H	-1.453516	2.481108	0.617897
H	-1.670859	2.197465	-1.115553
H	-2.702453	1.351379	0.050325
H	-0.543796	-1.453102	-1.09373
H	-2.624987	-1.925476	0.033668
H	-1.057645	-0.678947	1.893271
H	1.638797	-0.162458	1.869489
H	1.431822	-1.177388	-1.074348
H	3.307677	0.518622	0.174656
H	1.250185	1.819135	-0.21506
