19

C	2.133434	-0.778527	0.187433
C	0.684603	-0.512011	-0.124775
C	0.049166	-0.625672	-1.521792
C	-1.123287	0.113303	-0.844542
O	-1.62265	-0.8734	0.071174
C	-0.455002	-0.936504	0.904494
C	-0.42665	0.480384	1.531109
C	-0.085743	0.86588	0.086507
O	0.318714	2.109633	-0.368833
H	2.384121	-1.833136	0.023312
H	2.79193	-0.182222	-0.454371
H	2.380803	-0.544962	1.229573
H	0.583439	0.008319	-2.234454
H	-0.166998	-1.607363	-1.951017
H	-1.92833	0.616806	-1.376597
H	-0.426004	-1.852828	1.490986
H	-1.350851	0.834921	1.993446
H	0.428181	0.632697	2.197521
H	1.076085	2.396783	0.152267
