19

C	2.391935	-0.626971	-0.160262
C	0.919031	-0.515238	0.062025
C	2.5e-05	-1.135418	1.150251
C	-0.919006	-0.515274	0.062027
C	-2.391906	-0.627058	-0.160262
O	2.3e-05	-1.091849	-0.963825
C	-1.2e-05	0.717318	0.08037
C	-4.7e-05	2.062624	0.634822
O	-4.2e-05	1.802573	-0.794417
H	2.687286	-1.674942	-0.264828
H	2.677324	-0.090042	-1.069636
H	2.938283	-0.195869	0.684624
H	4.8e-05	-2.226117	1.156527
H	1.8e-05	-0.694791	2.151566
H	-2.687214	-1.675037	-0.26487
H	-2.938272	-0.196012	0.684641
H	-2.677317	-0.090105	-1.069614
H	-0.919763	2.498588	1.021854
H	0.919645	2.49864	1.021851
