19

C	1.872361	-1.644331	-0.374004
C	1.219526	-0.267723	-0.420143
C	1.480229	0.61681	0.843335
C	-0.022702	0.687317	1.129948
C	-0.773759	1.218745	-0.016153
O	-0.205975	2.224327	-0.794495
C	-0.293213	-0.229195	-0.121789
C	-1.27839	-1.311775	-0.209707
O	-2.415897	-1.236746	0.206923
H	1.574981	-2.265923	-1.225261
H	2.962846	-1.546675	-0.401791
H	1.607568	-2.183552	0.542876
H	1.479489	0.234656	-1.357338
H	2.021264	0.065697	1.615699
H	1.970544	1.577975	0.674805
H	-0.489106	0.573321	2.101497
H	-1.851735	1.276913	0.126989
H	-0.609303	2.191915	-1.668502
H	-0.915877	-2.244057	-0.697328
