19

O	-1.5819	-1.659007	-0.09243
C	-1.690944	-0.260919	-0.005724
C	-0.748009	0.53971	0.950955
C	-0.99896	1.748667	0.00415
C	-0.754153	0.536468	-0.943453
C	0.417979	0.149717	0.002064
C	1.189316	-1.177302	0.002467
O	2.453597	-0.47532	0.004631
C	1.806723	0.811729	-0.0009
H	-2.07547	-2.047822	0.636264
H	-2.740578	0.062846	-0.00347
H	-0.742337	0.539786	2.042707
H	-2.004886	2.17743	0.004774
H	-0.235377	2.527796	8.2e-05
H	-0.755208	0.531011	-2.034254
H	1.065131	-1.802787	0.894339
H	1.064519	-1.803064	-0.888026
H	2.059846	1.404581	0.88906
H	2.059079	1.396423	-0.896432
