19

C	2.645597	-1.193094	-0.127893
C	1.349664	-0.71363	0.491442
C	0.139637	-0.618997	-0.418475
C	-1.111242	-0.288726	0.418469
C	-0.398225	1.036264	0.891913
C	0.837324	0.641624	0.080543
O	1.584791	1.537887	-0.661385
C	-2.336088	-0.007865	-0.408487
O	-3.420495	-0.499227	-0.227396
H	2.681435	-2.286508	-0.163273
H	2.760849	-0.81374	-1.146644
H	3.510303	-0.852747	0.453342
H	1.187634	-1.042262	1.518764
H	0.139218	-1.074749	-1.401714
H	-1.362899	-1.008076	1.202182
H	-0.883665	1.924769	0.477765
H	-0.278901	1.163207	1.972446
H	2.336735	1.825938	-0.131505
H	-2.165085	0.721438	-1.236183
