19

C	2.789828	-0.684022	0.304599
O	1.647932	-0.49652	-0.506711
C	0.944217	0.661966	-0.2061
C	-0.428189	0.868287	-0.88864
O	-0.719231	1.868759	0.168776
C	-0.174257	0.699165	0.897676
C	-1.037249	-0.211121	0.01664
C	-1.250159	-1.67736	-0.094056
C	-2.421169	-0.733557	0.161436
H	2.522656	-0.825573	1.362086
H	3.297957	-1.581424	-0.054794
H	3.480063	0.170122	0.23363
H	1.574697	1.560436	-0.200243
H	-0.657765	1.135633	-1.920251
H	-0.105424	0.770194	1.983592
H	-1.16552	-2.137643	-1.072761
H	-0.916974	-2.310503	0.721845
H	-3.124613	-0.56347	-0.647201
H	-2.87281	-0.735832	1.148251
