19

C	-2.776143	-0.521287	-0.513807
O	-1.814092	-0.522952	0.524182
C	-0.508266	-0.613696	0.047143
C	0.525582	-0.293066	1.088614
C	1.965246	-0.499565	0.537317
O	1.902003	-0.973942	-0.818458
C	1.715176	0.428493	-0.561394
C	0.259031	0.6961	-0.054362
C	-0.366462	2.056748	-0.009465
H	-2.705556	-1.432664	-1.125586
H	-3.75927	-0.487334	-0.038803
H	-2.665801	0.349553	-1.175022
H	-0.341347	-1.412014	-0.672225
H	0.264923	-0.198236	2.134477
H	2.859638	-0.728407	1.104084
H	2.359254	1.122789	-1.089631
H	-1.321398	2.013104	0.521096
H	0.273724	2.779701	0.509924
H	-0.552438	2.446296	-1.018366
