19

C	-0.479548	-2.202915	0.033246
C	-0.221899	-0.707744	-0.19813
C	1.18047	-0.318568	0.344145
O	2.202484	-1.147075	-0.209433
C	1.492464	1.097384	0.144031
C	1.780667	2.244959	-0.066184
C	-1.314948	0.121619	0.444441
C	-2.594229	0.372869	-0.23136
O	-1.609889	1.400491	-0.115046
H	-0.555011	-2.426365	1.104225
H	-1.4155	-2.513685	-0.439552
H	0.339179	-2.79776	-0.37491
H	-0.232439	-0.490832	-1.273962
H	1.195896	-0.539027	1.420352
H	2.425178	-0.786759	-1.074918
H	2.017779	3.265667	-0.23936
H	-1.320973	0.106545	1.537416
H	-2.752316	-0.010472	-1.239243
H	-3.500417	0.519741	0.35466
