19

C	-3.334492	0.244145	-0.210072
O	-2.040449	-0.30205	-0.100381
C	-1.044266	0.680368	0.088159
C	0.289043	0.000448	0.212916
C	0.467358	-1.340438	0.914297
C	0.893897	-1.239517	-0.506954
C	2.280497	-0.579838	-0.572998
C	1.62064	0.67082	0.068359
O	1.971137	1.813283	0.180469
H	-3.416444	0.927558	-1.069442
H	-4.028361	-0.587711	-0.351813
H	-3.620867	0.79789	0.69752
H	-1.029587	1.386432	-0.759204
H	-1.251101	1.274668	0.994663
H	1.206953	-1.457868	1.702231
H	-0.479786	-1.836216	1.094962
H	0.42334	-1.797285	-1.304847
H	3.087574	-1.075273	-0.025108
H	2.626709	-0.337984	-1.581906
