19

C	-4.503538	0.05911	-0.35443
C	-3.100545	-0.121613	-0.013937
C	-1.93888	-0.26486	0.264372
C	-0.541647	-0.46253	0.615308
O	0.261437	0.540192	-0.000922
C	1.638336	0.404243	0.29224
C	2.332108	1.69835	-0.133836
C	2.23975	-0.765048	-0.486365
O	3.175084	-1.424647	-0.117332
H	-5.119606	0.180028	0.543189
H	-4.642233	0.951463	-0.97445
H	-4.892449	-0.798058	-0.91467
H	-0.413397	-0.420412	1.709979
H	-0.215776	-1.468684	0.301678
H	1.803456	0.223099	1.36559
H	1.885735	2.543084	0.396349
H	3.399182	1.649615	0.097029
H	2.208176	1.863501	-1.208484
H	1.741244	-0.93391	-1.470289
