19

O	-2.74308	0.077896	-0.497337
C	-1.562152	-0.014366	0.277658
C	-0.69456	1.258011	0.031798
C	0.727972	0.790969	0.2363
C	1.104224	-0.018866	1.4673
C	0.734117	-0.720631	0.2014
C	-0.648463	-1.233723	-0.092189
O	1.843391	-0.795488	-0.708526
C	1.843068	0.661554	-0.806099
H	-3.351238	-0.609833	-0.209722
H	-1.822999	-0.074477	1.345388
H	-0.843859	1.563379	-1.010147
H	-1.016609	2.088808	0.666779
H	2.141934	-0.044536	1.784465
H	0.381432	-0.02721	2.276438
H	-0.738525	-1.41786	-1.167752
H	-0.939755	-2.145859	0.439478
H	2.824966	1.086859	-0.566525
H	1.536928	0.983768	-1.80851
