19

C	-2.008165	-0.274467	-0.638172
C	-1.80555	0.894348	0.330487
C	-0.316881	0.755462	0.693312
C	0.651997	1.414943	-0.331943
C	1.653889	0.338477	-0.689103
O	2.284257	-0.253996	0.456238
C	1.204647	-0.958678	-0.171855
C	-0.094038	-0.784939	0.591046
O	-1.200991	-1.331758	-0.12797
H	-3.040722	-0.632225	-0.687964
H	-1.695612	-0.002101	-1.659092
H	-2.050854	1.864181	-0.111097
H	-2.43093	0.755523	1.218052
H	-0.107874	1.117237	1.699973
H	0.119581	1.726614	-1.239354
H	1.137749	2.305236	0.078815
H	2.287312	0.433754	-1.567891
H	1.449562	-1.913854	-0.628537
H	-0.049733	-1.279215	1.568307
