19

C	1.418236	2.245852	-0.07416
C	1.022483	0.805565	0.086745
C	1.838186	-0.225039	-0.144445
C	1.373882	-1.651657	0.008822
O	-0.018865	-1.820025	-0.242627
C	-0.845982	-0.90821	0.414996
C	-1.469663	0.179014	-0.426063
O	-2.733274	0.673804	-0.103087
C	-0.362572	0.515168	0.548959
H	1.308724	2.792964	0.870873
H	2.455056	2.343475	-0.407301
H	0.772059	2.751749	-0.802121
H	2.867754	-0.067679	-0.454939
H	1.878699	-2.299226	-0.715326
H	1.628829	-2.033335	1.012586
H	-1.444485	-1.329889	1.221623
H	-1.205621	0.163021	-1.48367
H	-3.387439	0.028444	-0.393211
H	-0.70388	1.056082	1.428079
