19

O	3.739585	0.084685	-0.143736
C	2.618145	-0.680597	0.264944
C	1.365969	0.024199	-0.242244
C	0.085282	-0.729071	0.126507
C	-1.204795	-0.016886	-0.366829
C	-1.39124	1.296095	0.401996
O	-1.241915	2.388176	-0.073233
C	-2.385753	-0.848524	-0.167416
C	-3.364811	-1.514257	0.041436
H	4.535166	-0.348776	0.178241
H	2.660745	-1.703956	-0.143758
H	2.573985	-0.772198	1.36298
H	1.350503	1.042013	0.163249
H	1.441223	0.12709	-1.331308
H	0.096209	-1.735195	-0.306128
H	0.015745	-0.864187	1.213748
H	-1.094344	0.244299	-1.425463
H	-1.66642	1.149626	1.47066
H	-4.230944	-2.107345	0.203168
