19

O	3.579352	-0.157534	-0.407762
C	2.354317	-0.408937	0.259278
C	1.252574	0.579148	-0.133946
C	-0.106927	0.278816	0.523282
C	-1.117529	1.397293	0.333235
C	-2.197923	1.009745	-0.349302
C	-2.111542	-0.448115	-0.656734
O	-2.053533	-1.27692	0.530142
C	-0.828401	-0.918191	-0.104193
H	3.875459	0.723702	-0.157793
H	2.075433	-1.430379	-0.020601
H	2.482861	-0.403063	1.354404
H	1.569284	1.591585	0.153027
H	1.14748	0.585405	-1.225401
H	0.050128	0.094682	1.59598
H	-0.953157	2.38816	0.743623
H	-3.045293	1.630437	-0.612009
H	-2.612167	-0.900513	-1.507144
H	-0.263989	-1.742939	-0.532844
