19

C	-1.672042	1.837245	-0.133183
C	-1.883777	0.443996	0.422616
O	-2.457974	-0.469314	-0.548393
C	-1.340794	-1.372155	-0.454038
C	-0.646677	-0.470326	0.592929
O	0.552948	0.14869	0.206641
C	1.67643	-0.709394	0.313936
C	2.885174	0.00751	-0.067632
C	3.897039	0.574183	-0.378033
H	-1.238819	2.492515	0.629069
H	-1.000768	1.818004	-0.99359
H	-2.635644	2.254108	-0.441533
H	-2.512062	0.481778	1.322831
H	-1.642459	-2.369846	-0.111602
H	-0.796288	-1.46054	-1.403108
H	-0.54104	-0.922515	1.589111
H	1.773129	-1.082036	1.348041
H	1.553779	-1.594754	-0.331361
H	4.788263	1.081915	-0.653405
