19

C	1.765363	0.0	-0.739241
C	1.303787	1.288485	-0.016737
C	-0.137114	1.133894	0.499364
O	-0.179053	0.0	1.371773
C	-0.137114	-1.133894	0.499363
C	1.303788	-1.288485	-0.016737
C	-1.077674	-0.731972	-0.634446
O	-2.223062	0.0	-0.193735
C	-1.077674	0.731972	-0.634445
H	1.368936	0.0	-1.76053
H	2.855405	0.0	-0.838778
H	1.939847	1.486028	0.852768
H	1.393688	2.152841	-0.685584
H	-0.471188	2.002034	1.073878
H	-0.471189	-2.002035	1.073877
H	1.939847	-1.486026	0.852769
H	1.393689	-2.152841	-0.685583
H	-1.196146	-1.34266	-1.524922
H	-1.196145	1.342661	-1.524921
