19

C	-3.961808	1.048247	0.088084
C	-2.806042	0.165054	0.019257
C	-1.861247	-0.579252	-0.035497
C	-0.691738	-1.448867	-0.113883
C	0.5829	-0.668413	-0.391777
O	1.809353	-1.364347	-0.180165
C	1.499493	-0.262412	0.680317
C	2.397377	0.956379	0.592806
O	2.481019	1.535447	-0.694363
H	-4.153286	1.377559	1.115345
H	-3.815485	1.944731	-0.524635
H	-4.866718	0.547016	-0.272826
H	-0.564812	-2.016456	0.815852
H	-0.827672	-2.191484	-0.911534
H	0.568056	-0.071032	-1.302526
H	1.248311	-0.555875	1.702674
H	2.06587	1.684934	1.349728
H	3.418243	0.657959	0.85755
H	1.650902	1.989438	-0.869247
