19

C	-2.227203	0.779529	-0.049296
C	-2.227205	-0.779556	-0.049227
C	-0.782101	-0.789505	0.513857
C	-0.782116	0.789526	0.513845
C	0.315046	0.78337	-0.58328
O	1.617351	1.134758	-0.153626
C	2.150618	-2.5e-05	0.492122
O	1.617344	-1.134758	-0.153707
C	0.315036	-0.78333	-0.583303
H	-2.350543	1.262429	-1.024104
H	-2.961543	1.21163	0.633935
H	-2.961505	-1.211574	0.6341
H	-2.350613	-1.26256	-1.023975
H	-0.57322	-1.410619	1.385631
H	-0.573294	1.410656	1.385622
H	0.099654	1.336351	-1.500808
H	3.238284	-2.5e-05	0.377459
H	1.883177	-6.2e-05	1.563329
H	0.099598	-1.336276	-1.500841
