19

C	3.532353	0.488451	0.039268
C	2.316847	-0.308202	-0.402657
O	1.240442	-0.005724	0.468427
C	0.066486	-0.716378	0.185377
C	-1.145112	-0.25363	0.999937
C	-1.405749	0.955659	0.043111
O	-2.812436	0.636367	-0.17268
C	-2.134716	-0.654586	-0.137487
C	-0.873454	-0.162538	-0.912682
H	4.385577	0.275325	-0.611506
H	3.323663	1.561272	-0.001796
H	3.805202	0.232347	1.066922
H	2.04912	-0.060239	-1.442392
H	2.530561	-1.389774	-0.373524
H	0.257109	-1.799694	0.154087
H	-1.322092	-0.293375	2.073595
H	-1.111275	1.998361	0.137058
H	-2.723327	-1.561995	-0.263537
H	-0.758514	-0.100036	-1.994085
