19

O	-2.65885	0.348787	-0.14704
C	-1.297012	0.182562	-0.479244
C	-0.297151	0.96716	0.440574
C	0.948842	1.568865	-0.251404
C	2.051295	0.47146	-0.22826
C	1.378122	-0.794284	0.292973
O	0.548384	-1.443474	-0.714
C	-0.666554	-1.145709	0.004084
C	0.131019	-0.38716	1.099327
H	-2.760877	0.21389	0.801695
H	-1.216329	0.36498	-1.554365
H	-0.818164	1.685291	1.078081
H	0.707528	1.882839	-1.27127
H	1.289784	2.463821	0.277037
H	2.497256	0.290871	-1.210535
H	2.864993	0.752219	0.450246
H	2.071043	-1.515736	0.738874
H	-1.316236	-2.015771	0.135842
H	0.073367	-0.542279	2.174433
