19

O	-0.117336	2.073867	0.045169
C	-0.562415	0.957053	-0.025163
C	-2.035631	0.547091	-0.05213
C	-1.954397	-0.958699	0.205258
O	-0.684029	-1.362226	-0.317211
C	0.253839	-0.332164	-0.097663
C	1.26361	-0.474651	1.092586
C	2.381628	0.024762	0.139919
C	1.458867	-0.291258	-1.067768
H	-2.622965	1.116594	0.670358
H	-2.427607	0.760746	-1.05339
H	-2.016328	-1.177971	1.281875
H	-2.720918	-1.542756	-0.308094
H	1.067649	0.103121	1.998643
H	1.369141	-1.532553	1.346457
H	2.547333	1.097915	0.245247
H	3.340003	-0.495262	0.183372
H	1.411656	0.43459	-1.88226
H	1.629942	-1.290357	-1.476108
