19

C	-2.335123	-0.351875	0.225932
C	-0.857602	-0.484023	-0.071717
O	-0.540508	-1.537894	-0.940583
C	0.118077	-0.226341	1.071687
C	1.492559	-0.790554	0.965669
C	2.157377	-0.284052	-0.073976
C	1.329328	0.723722	-0.838252
C	-0.002283	0.768146	-0.076103
O	-0.583827	2.018971	0.160176
H	-2.716536	-1.282632	0.656761
H	-2.528781	0.469893	0.918016
H	-2.902496	-0.153294	-0.69346
H	-0.924816	-1.336083	-1.80103
H	-0.321031	-0.017525	2.041978
H	1.870451	-1.538866	1.652174
H	3.159136	-0.564487	-0.378363
H	1.782233	1.723412	-0.843206
H	1.199912	0.422266	-1.886407
H	-1.037391	2.298569	-0.642659
