19

O	-3.531533	0.161937	-0.151588
C	-2.213527	0.293923	0.35446
C	-1.156411	-0.264269	-0.60744
C	0.246458	-0.109903	-0.078406
C	0.889537	1.274026	0.076241
C	2.37294	0.988489	-0.036774
C	2.622624	-0.303449	-0.264348
C	1.345113	-1.074634	-0.284611
O	0.623138	-1.016521	0.970842
H	-3.734141	-0.777771	-0.200477
H	-2.061599	1.368787	0.500707
H	-2.104355	-0.188022	1.337344
H	-1.352764	-1.330472	-0.775047
H	-1.252068	0.243232	-1.574689
H	0.546252	1.963786	-0.706155
H	0.632331	1.731841	1.038903
H	3.122383	1.761799	0.08914
H	3.598603	-0.756385	-0.384771
H	1.232118	-2.005218	-0.833727
