19

O	-3.010178	0.136854	0.527261
C	-1.857813	-0.004457	-0.264183
C	-1.113154	-1.363313	-0.360305
C	0.215918	-0.561779	-0.456565
C	1.45878	-1.134716	0.233166
C	2.614185	-0.24572	0.188648
C	3.56087	0.493044	0.143315
C	-0.517822	0.644831	0.171088
O	-0.152543	1.900207	-0.336752
H	-2.815235	-0.213647	1.402862
H	-2.125429	0.362456	-1.259736
H	-1.177356	-1.916473	0.584739
H	-1.374641	-2.036546	-1.178137
H	0.445083	-0.321424	-1.498833
H	1.215914	-1.367015	1.279187
H	1.718269	-2.093715	-0.234974
H	4.394351	1.149303	0.103541
H	-0.431988	0.606455	1.272083
H	-0.712976	2.566776	0.074207
