19

C	2.979562	-0.81311	-0.286676
C	1.522477	-0.416961	-0.381595
C	1.109167	0.956658	0.081149
O	-0.054992	1.54161	-0.456486
C	-1.202038	0.911315	0.058338
C	-1.546253	-0.471944	-0.409554
O	-2.905183	-0.785901	-0.318095
C	-0.783838	-0.280725	0.894491
C	0.72743	-0.250625	0.906278
H	3.091192	-1.896615	-0.169694
H	3.530328	-0.511734	-1.184248
H	3.463375	-0.338558	0.574027
H	1.000414	-0.811678	-1.246739
H	1.857596	1.688678	0.369299
H	-2.006281	1.590749	0.320222
H	-1.030571	-0.873884	-1.279357
H	-2.981179	-1.699154	-0.021387
H	-1.302015	-0.524459	1.814453
H	1.219499	-0.476669	1.845479
