19

C	-2.658579	-0.505147	0.065717
C	-1.193326	-0.17894	0.088664
C	-0.153782	-0.822399	1.014099
C	0.948572	-0.467628	-0.037676
O	1.855162	-1.457771	-0.425432
C	1.541609	0.913262	0.281081
O	0.406215	1.779707	0.310874
C	-0.620018	1.131117	-0.420371
C	-0.168645	-0.134493	-1.059779
H	-2.82431	-1.583706	-0.038297
H	-3.14929	-0.179525	0.990698
H	-3.163991	-0.009468	-0.770055
H	-0.044479	-0.416668	2.026771
H	-0.287514	-1.907259	1.056224
H	2.410766	-1.673339	0.331717
H	2.038238	0.957459	1.25766
H	2.253938	1.216715	-0.501024
H	-1.286642	1.821618	-0.923928
H	-0.212713	-0.415948	-2.103714
