19

O	-2.192734	-1.480786	-0.406637
C	-1.519467	-0.757229	0.619842
C	-0.206115	-0.203827	0.157928
C	-0.059849	1.164694	-0.452936
O	-1.203208	1.961019	-0.291093
C	0.695512	0.838122	0.817399
C	1.922434	-0.087848	0.615148
C	2.180695	-0.472189	-0.817406
C	1.034238	-1.11275	-0.077671
H	-2.38281	-0.852835	-1.111647
H	-2.139099	0.057653	1.014985
H	-1.358908	-1.481271	1.426794
H	0.44772	1.32021	-1.402198
H	-0.914549	2.864147	-0.123231
H	0.500857	1.397926	1.724274
H	2.657219	-0.251006	1.393387
H	2.055025	0.20689	-1.652407
H	3.03316	-1.134537	-0.940377
H	0.984233	-2.182885	0.078429
