19

C	2.403674	1.384967	-0.168008
C	1.791548	0.054459	0.25289
O	2.625785	-0.964457	-0.288144
C	0.364745	-0.11194	-0.242127
C	-0.544764	-1.048693	0.477293
C	-1.868494	-1.179795	-0.293162
C	-2.058303	0.349205	-0.073373
O	-2.985912	1.087238	-0.242084
C	-0.739791	0.481779	0.630082
H	1.841138	2.222399	0.25331
H	3.439043	1.446167	0.176633
H	2.400722	1.474267	-1.258681
H	1.784482	-0.004979	1.355221
H	2.220493	-1.815046	-0.089786
H	0.27305	-0.033057	-1.324766
H	-0.205805	-1.722512	1.254426
H	-1.810976	-1.548302	-1.321467
H	-2.648785	-1.727703	0.242975
H	-0.504035	1.146635	1.452391
