19

C	2.436073	-0.297417	0.16525
C	0.973506	-0.016801	-0.070022
O	0.332358	-1.05538	-0.792098
C	-0.694449	-1.642117	-0.029031
O	-1.756188	-0.751581	0.228865
C	-1.29584	0.562342	0.510378
C	-0.926786	1.434217	-0.739476
C	0.535943	1.402951	-0.304513
C	0.161372	0.660519	0.995724
H	2.949772	-0.447572	-0.789379
H	2.916751	0.53438	0.68844
H	2.566914	-1.20363	0.765725
H	-1.102413	-2.472469	-0.60948
H	-0.27891	-2.014085	0.92253
H	-2.038935	1.024551	1.161047
H	-1.163447	0.990059	-1.708756
H	-1.364732	2.432932	-0.672334
H	1.261374	2.196638	-0.436521
H	0.505356	0.792716	2.014733
