19

C	2.163594	-0.234529	-0.68524
O	2.113542	-0.13541	0.745561
C	0.894046	-0.003824	0.01306
C	0.261566	1.387585	0.113909
O	-1.105591	1.413321	-0.289115
C	-1.791507	0.180759	-0.107347
C	-1.261364	-0.619455	1.114512
C	-0.137107	-1.104801	0.149902
C	-1.163512	-0.91611	-1.007741
H	2.662735	0.59073	-1.191971
H	2.398601	-1.225142	-1.074491
H	0.352949	1.709319	1.161401
H	0.790904	2.11974	-0.502008
H	-2.855077	0.409031	-0.191438
H	-0.987304	-0.07376	2.020136
H	-1.944428	-1.431718	1.372812
H	0.333644	-2.076424	0.310464
H	-0.79265	-0.59781	-1.985302
H	-1.817282	-1.785007	-1.117497
