19

C	2.602514	-0.351334	-0.17298
C	1.137632	-0.747397	-0.121694
C	0.218177	-0.179741	0.994028
O	0.38116	1.238025	0.866742
C	-0.192805	1.361976	-0.44928
C	-1.668334	0.977027	-0.20181
C	-1.033037	-0.406155	0.022843
O	-1.699787	-1.620797	0.023903
C	0.080257	-0.09236	-1.029926
H	3.175904	-0.859087	0.610831
H	3.048146	-0.623129	-1.136058
H	2.718067	0.725989	-0.031444
H	1.004726	-1.832541	-0.179315
H	0.25333	-0.49361	2.037797
H	0.118713	2.283425	-0.935007
H	-2.184942	1.494561	0.610876
H	-2.264853	0.975226	-1.117831
H	-2.154955	-1.719841	0.867591
H	-0.031545	-0.260913	-2.099682
