19

O	-3.641676	-0.461482	-0.196038
C	-2.699645	0.168869	0.210739
C	-1.315132	0.14796	-0.391514
C	-0.251442	-0.261971	0.647351
C	1.164105	-0.210377	0.1043
C	2.201064	-1.219175	0.598134
C	1.676574	-1.335447	-0.790875
C	1.715601	1.135102	-0.18728
O	1.129693	2.17611	-0.009409
H	-2.799076	0.83351	1.101706
H	-1.318215	-0.525315	-1.253425
H	-1.085544	1.16408	-0.735358
H	-0.318997	0.404457	1.515248
H	-0.462019	-1.276187	1.00518
H	3.218857	-0.870903	0.739666
H	1.860569	-1.923969	1.348186
H	2.330729	-1.071869	-1.615415
H	0.967376	-2.124206	-1.015735
H	2.755443	1.123605	-0.591615
