19

C	-2.175527	-1.585204	-0.12694
C	-1.344865	-0.341291	-0.074609
C	-1.775788	0.891819	0.215012
C	-0.692629	1.933653	0.154265
C	0.554164	1.100316	-0.149737
O	1.69614	1.499916	-0.137629
C	0.135138	-0.354325	-0.395297
C	1.025145	-1.312344	0.430201
O	2.364049	-1.275579	-0.001436
H	-2.114013	-2.059629	-1.114581
H	-1.831897	-2.332379	0.598657
H	-3.226649	-1.370174	0.083348
H	-2.804985	1.136371	0.454667
H	-0.845299	2.679842	-0.638337
H	-0.550622	2.503088	1.081192
H	0.316112	-0.601276	-1.452653
H	0.927105	-1.062205	1.500378
H	0.675613	-2.342462	0.304233
H	2.61931	-0.341606	-0.021754
