19

C	2.516338	-0.81447	-0.224062
C	1.247421	-0.061741	0.020607
C	1.035129	1.421532	0.518144
C	-0.317818	0.840763	0.055868
C	-1.802691	0.911758	-0.136883
C	-2.071007	-0.62663	-0.277082
O	-1.016571	-1.350474	0.4047
C	-0.046164	-0.438552	0.832405
O	0.385451	0.258136	-1.129912
H	3.056724	-0.965857	0.715492
H	2.291983	-1.793673	-0.657369
H	3.16525	-0.267436	-0.915053
H	1.164074	1.648404	1.580091
H	1.47531	2.171626	-0.138283
H	-2.291501	1.330674	0.747849
H	-2.126966	1.461657	-1.022544
H	-3.028879	-0.919973	0.164731
H	-2.061283	-0.913202	-1.332517
H	0.037005	-0.409482	1.92532
