19

C	-3.388665	-0.182581	-0.026537
O	-2.008232	-0.42157	0.116744
C	-1.21993	0.693087	-0.235073
C	0.213535	0.322894	-0.030832
O	1.21568	1.313211	-0.2684
C	2.141339	0.408983	0.407159
C	2.308798	-0.755425	-0.602689
C	0.841929	-1.056714	-0.293794
C	0.94085	-0.365647	1.070079
H	-3.654324	0.059964	-1.067365
H	-3.909533	-1.096505	0.268296
H	-3.727858	0.644776	0.616156
H	-1.384178	0.980479	-1.288324
H	-1.473462	1.569112	0.385369
H	2.974329	0.920826	0.883946
H	2.600003	-0.476723	-1.62057
H	2.966229	-1.537244	-0.213247
H	0.243168	-1.918214	-0.55496
H	0.678905	-0.667171	2.07407
