19

O	2.990373	0.350556	-0.205314
C	2.122452	-0.471874	-0.334612
C	0.810692	-0.475188	0.448459
C	0.334298	0.942129	0.802879
C	-0.556441	1.575567	-0.279127
C	-1.958092	1.010722	-0.315994
C	-2.311999	-0.25189	-0.080847
C	-1.380677	-1.410769	0.170903
O	-0.076849	-1.227364	-0.352499
H	2.212958	-1.328121	-1.037014
H	1.02796	-1.024378	1.385864
H	-0.216411	0.925545	1.748603
H	1.234484	1.545305	0.961339
H	-0.623412	2.651452	-0.0848
H	-0.078879	1.483034	-1.264078
H	-2.748642	1.725006	-0.535366
H	-3.367447	-0.516968	-0.095629
H	-1.332837	-1.658053	1.246135
H	-1.777363	-2.300538	-0.33251
