19

C	2.660591	-0.913359	0.25647
O	1.405549	-0.993704	-0.397661
C	0.568424	0.063146	-0.137521
C	0.743407	1.573209	-0.506959
C	-0.674703	1.429758	0.119622
C	-0.035479	0.535406	1.2249
C	-0.86552	0.161821	-0.763223
C	-1.893699	-0.883389	-0.436149
O	-2.663938	-0.84877	0.492686
H	2.544933	-0.892316	1.348513
H	3.222363	-1.805637	-0.025888
H	3.222163	-0.022308	-0.056097
H	1.468857	2.142025	0.079808
H	0.795394	1.815932	-1.571385
H	-1.405213	2.219604	0.268395
H	0.65246	1.04545	1.903771
H	-0.699967	-0.147701	1.750133
H	-0.844277	0.32246	-1.848142
H	-1.907727	-1.737261	-1.152146
