19

C	-0.079523	1.937286	-0.194312
C	-0.781461	0.783922	0.523438
O	-2.119135	0.655277	0.032105
C	-2.375107	-0.680909	-0.385501
C	-1.073446	-1.403976	-0.201796
C	-0.162973	-0.585519	0.319946
C	1.263122	-0.889388	0.679715
C	2.234254	-0.459665	-0.414901
O	3.153404	0.298634	-0.256619
H	-0.002381	1.732877	-1.266703
H	-0.656072	2.856517	-0.060423
H	0.926128	2.099548	0.205511
H	-0.818813	1.01719	1.602551
H	-3.181318	-1.123638	0.222581
H	-2.723565	-0.68426	-1.429985
H	-0.93713	-2.451457	-0.443227
H	1.563674	-0.397977	1.610298
H	1.385448	-1.973349	0.803527
H	2.020676	-0.917246	-1.407559
