19

C	2.757819	-1.032666	0.57967
C	1.712968	-0.910256	-0.543984
C	0.647857	0.089117	-0.267369
C	-0.699218	-0.015908	-0.061806
O	-1.369329	-1.198368	-0.088081
C	-2.764938	-1.128143	0.127421
C	-1.201563	1.309357	0.170713
C	-0.11579	2.123339	0.090307
O	1.004037	1.410301	-0.171491
H	2.288547	-1.348871	1.516218
H	3.526844	-1.765608	0.316429
H	3.249995	-0.072231	0.757794
H	2.222679	-0.65891	-1.483985
H	1.217478	-1.873035	-0.703879
H	-3.139113	-2.151956	0.07196
H	-3.000976	-0.712514	1.116295
H	-3.263147	-0.521289	-0.640593
H	-2.217235	1.611695	0.365988
H	0.014454	3.188216	0.190637
