19

O	-3.122248	-0.590515	-0.109633
C	-2.083524	-0.021815	-0.330168
C	-0.820174	-0.188792	0.483827
C	-0.216688	1.191432	0.842404
O	0.577159	1.570539	-0.271196
C	1.179537	0.403709	-0.799676
C	2.381413	-0.181651	-0.001168
C	1.512967	-1.40437	0.414632
C	0.302934	-0.816696	-0.3726
H	-1.985614	0.68987	-1.182521
H	-1.057038	-0.788544	1.366212
H	-0.965066	1.974241	0.999014
H	0.385162	1.108735	1.759961
H	1.354761	0.57907	-1.862812
H	3.249174	-0.425216	-0.618137
H	2.711912	0.462734	0.817167
H	1.865272	-2.36156	0.025311
H	1.34664	-1.516541	1.489348
H	-0.083284	-1.453886	-1.170416
