19

C	-1.020438	2.014369	-0.404208
C	-1.015275	0.550832	-0.102206
O	-1.536447	0.113152	1.162656
C	-2.093292	-0.4524	-0.034743
C	-1.163478	-1.585442	-0.473626
C	0.005018	-0.533034	-0.543683
C	1.220976	-0.787917	0.356928
C	2.258228	0.305353	0.253305
O	3.379026	0.153975	-0.16167
H	-0.229769	2.535612	0.147262
H	-0.855519	2.19052	-1.47198
H	-1.978401	2.456988	-0.118323
H	-3.163606	-0.348191	-0.174192
H	-1.045653	-2.395384	0.250864
H	-1.410184	-2.002416	-1.452584
H	0.31895	-0.377409	-1.580694
H	0.86535	-0.839663	1.394129
H	1.697541	-1.738124	0.097887
H	1.910221	1.310493	0.589129
