19

C	-2.858321	-0.201912	0.387502
C	-1.582101	0.220795	-0.305583
O	-0.83235	-0.94047	-0.806324
C	0.332658	-0.50918	-0.135487
C	1.485585	-1.331511	0.413785
C	2.386417	-0.054997	0.24452
C	1.276982	0.623894	-0.619625
O	0.500919	1.646842	0.051079
C	-0.381715	0.643167	0.586935
H	-3.509583	-0.738474	-0.308891
H	-2.642979	-0.864603	1.231604
H	-3.397281	0.676064	0.759606
H	-1.770948	0.936196	-1.11394
H	1.374919	-1.760415	1.412973
H	1.780247	-2.125178	-0.279364
H	2.57315	0.489414	1.171764
H	3.333889	-0.224573	-0.269446
H	1.514861	0.87493	-1.654799
H	-0.561854	0.744128	1.66017
