19

C	-0.350452	1.901239	0.137291
C	-0.728595	0.440422	0.052154
C	-2.172043	0.115705	-0.039973
O	-2.62905	-1.004646	0.019169
C	0.115018	-0.674654	0.688283
C	1.516298	-0.314611	1.173799
C	2.326369	-0.209656	-0.140204
O	1.374763	-0.060572	-1.210039
C	0.142353	-0.542089	-0.785432
H	-0.311532	2.261463	1.171138
H	0.620086	2.084094	-0.329877
H	-1.087193	2.511653	-0.396116
H	-2.83645	0.993916	-0.204026
H	-0.448297	-1.470083	1.160884
H	1.53548	0.621584	1.739406
H	1.912136	-1.097544	1.824981
H	2.9983	0.652017	-0.170583
H	2.919276	-1.117587	-0.314619
H	-0.361189	-1.215909	-1.46974
