19

C	3.081805	-0.087839	-0.646521
C	1.767385	0.346683	-0.033789
C	1.011317	-0.652938	0.778132
O	-0.11579	-0.048203	1.417567
C	-0.736595	0.22937	0.11846
C	-1.200518	1.657889	-0.061848
C	-1.866708	-0.781	-0.065822
O	-2.843587	-0.59581	-0.742435
C	0.515189	-0.296986	-0.607679
H	3.289401	0.46146	-1.570609
H	3.912	0.087599	0.045245
H	3.072309	-1.155314	-0.892248
H	1.719447	1.383908	0.289822
H	1.415902	-1.56199	1.208343
H	-1.75839	1.741657	-0.997871
H	-1.870572	1.940198	0.755929
H	-0.357718	2.351439	-0.076389
H	-1.693924	-1.731402	0.485115
H	0.515312	-0.85653	-1.533994
