19

O	-3.003376	0.082117	0.353007
C	-1.606558	-0.041284	0.452919
C	-0.943887	-1.311303	-0.162516
C	0.083386	-0.415016	-0.893611
C	-0.720915	0.86818	-0.460866
C	0.541981	1.45012	0.224667
C	1.243244	0.108326	-0.031001
C	2.192301	-0.637841	0.799312
O	2.602011	0.010272	-0.413564
H	-3.252631	-0.055366	-0.567288
H	-1.383564	0.094925	1.515895
H	-0.565491	-2.074074	0.523918
H	-1.629964	-1.793475	-0.867707
H	0.349474	-0.651975	-1.924364
H	-1.270054	1.501671	-1.158645
H	1.00916	2.247095	-0.361393
H	0.440418	1.784946	1.261535
H	2.574334	-0.192956	1.717601
H	2.201921	-1.726999	0.771479
