19

C	1.226591	2.012164	-0.004368
C	0.675103	0.62021	-0.117615
C	-0.733898	0.12189	-0.539479
C	-1.928869	0.478678	0.329602
O	-3.097531	-0.248979	-0.021719
C	0.029071	-1.195751	-0.250265
C	1.363266	-0.611836	-0.798368
O	2.153618	-0.971441	0.373051
C	0.860174	-0.55821	0.906195
H	2.275513	1.97086	0.307236
H	1.174009	2.539355	-0.963011
H	0.674869	2.604604	0.733332
H	-0.979788	0.28052	-1.596247
H	-1.679684	0.342579	1.39532
H	-2.191824	1.533764	0.194407
H	-2.902558	-1.18529	0.087669
H	-0.295464	-2.234465	-0.321736
H	1.812258	-0.703325	-1.787553
H	0.715341	-0.588102	1.985721
