19

C	-2.500109	-0.143742	0.20982
O	-1.69552	-0.703377	-0.835771
C	-1.081709	0.190048	0.074827
C	-0.394165	1.489584	-0.356639
C	0.852083	1.083112	0.491127
C	2.05527	0.532722	-0.289499
C	1.631723	-0.913323	-0.605945
O	0.863444	-1.333055	0.520508
C	0.118409	-0.222915	0.960201
H	-3.256926	0.570053	-0.114668
H	-2.819963	-0.846626	0.978701
H	-0.219051	1.559742	-1.434345
H	-0.892865	2.403468	-0.023492
H	1.134483	1.795691	1.266003
H	2.284066	1.110575	-1.189411
H	2.944321	0.529091	0.348462
H	1.025601	-0.959484	-1.522287
H	2.470399	-1.605646	-0.711977
H	-0.102464	-0.35832	2.021771
