19

O	-2.744459	-0.905606	-0.566742
C	-2.637013	-0.250341	0.434384
O	-1.754835	0.729863	0.663287
C	-0.835787	1.059896	-0.418488
C	0.508805	0.452416	-0.192913
C	1.653501	1.127549	-0.069283
C	2.852331	0.218763	0.036034
C	2.212621	-1.170838	0.293776
C	0.744029	-1.045505	-0.184897
H	-3.267448	-0.36531	1.330273
H	-1.282065	0.709689	-1.353493
H	-0.780643	2.150253	-0.420583
H	1.734974	2.209859	-0.087961
H	3.431962	0.237901	-0.898112
H	3.545917	0.517401	0.830093
H	2.750293	-1.98339	-0.200607
H	2.227221	-1.38126	1.367687
H	0.597554	-1.45566	-1.193914
H	0.04566	-1.585173	0.462584
