19

C	-2.723668	-0.672465	0.03284
O	-1.603359	-0.344796	-0.766339
C	-0.489834	0.054739	-0.033957
C	-0.517352	1.441194	0.665957
C	0.84371	1.795651	-0.003624
C	0.824046	0.447086	-0.801568
C	1.554006	-0.658715	-0.041847
O	2.680878	-1.062837	-0.042645
C	0.285083	-1.064723	0.736958
H	-3.058208	0.182554	0.637773
H	-3.528583	-0.960316	-0.646704
H	-2.510845	-1.513752	0.708629
H	-1.335752	2.058904	0.288343
H	-0.547099	1.443454	1.758407
H	0.803542	2.671765	-0.65211
H	1.693101	1.91047	0.673334
H	0.915001	0.49655	-1.886136
H	-0.049942	-2.062636	0.433656
H	0.342683	-1.022525	1.828127
