19

C	-1.489167	-1.280341	1.016045
C	-0.823586	-0.418504	-0.023677
C	-0.016809	-1.056242	-1.189597
C	1.098502	-0.02059	-0.922324
O	2.077353	-0.45922	0.057744
C	1.508995	0.388289	1.092165
C	0.294284	0.643172	0.221543
C	-0.777333	1.687631	-0.00885
O	-1.687648	0.664453	-0.488241
H	-0.788667	-2.02204	1.413058
H	-1.872434	-0.67656	1.84439
H	-2.334113	-1.817554	0.570445
H	0.306694	-2.088866	-1.035787
H	-0.519494	-0.961296	-2.15532
H	1.562755	0.514453	-1.756549
H	1.356971	-0.148104	2.036492
H	2.139439	1.269649	1.277074
H	-1.160296	2.170209	0.90162
H	-0.577806	2.457751	-0.763267
