19

C	2.882697	-0.291303	0.538965
C	1.557268	-0.735462	-0.043032
O	1.450423	-1.685266	-0.776881
C	0.308866	0.089083	0.382251
C	-0.994406	-0.567404	-0.110336
C	-2.253287	0.124765	0.41345
O	-3.438702	-0.544561	0.014674
C	0.457508	1.469077	-0.076205
C	0.59144	2.590932	-0.488751
H	3.691052	-0.883074	0.108795
H	3.047413	0.773389	0.352563
H	2.870905	-0.428792	1.626842
H	0.311181	0.097871	1.483807
H	-0.994496	-0.569023	-1.206059
H	-0.999564	-1.614894	0.203694
H	-2.262612	0.109492	1.509758
H	-2.262486	1.180552	0.105066
H	-3.496568	-0.492291	-0.944726
H	0.700894	3.587264	-0.840134
