19

C	-2.6892	0.670634	0.04589
C	-1.175228	0.629793	0.132874
C	-0.385941	-0.236236	-0.893802
O	-0.930349	-1.453172	-0.230192
C	-0.501896	-0.563032	0.864155
C	0.837159	-0.302525	0.066945
C	1.791163	-1.488248	-0.060821
C	1.629064	0.948383	0.355392
O	1.628998	1.952005	-0.313882
H	-3.094532	-0.320498	-0.164828
H	-3.119601	1.032394	0.985958
H	-3.009865	1.356845	-0.744976
H	-0.746556	1.613196	0.330643
H	-0.399123	-0.210906	-1.983566
H	-0.624742	-0.927494	1.8858
H	2.469497	-1.353834	-0.910146
H	2.40612	-1.594971	0.839733
H	1.219414	-2.4048	-0.208343
H	2.279465	0.86679	1.258511
