19

O	0.712238	2.080196	0.209446
C	0.051535	0.933965	-0.281722
C	-1.437624	1.097937	0.027786
O	-2.185156	-0.0175	-0.416611
C	-1.785864	-1.220355	0.218006
C	-0.318502	-1.552017	-0.060575
C	0.572671	-0.368565	0.376008
C	1.985473	-0.565145	0.070902
C	3.14963	-0.680213	-0.211066
H	1.658263	1.946562	0.076798
H	0.17315	0.838163	-1.372304
H	-1.560509	1.253473	1.11298
H	-1.833572	1.975658	-0.488804
H	-1.951996	-1.146228	1.307057
H	-2.442969	-2.003673	-0.169833
H	-0.027216	-2.463669	0.471159
H	-0.181196	-1.736986	-1.131446
H	0.467806	-0.232931	1.462401
H	4.177667	-0.805577	-0.446721
