19

C	-3.24896	-0.571146	-0.413281
C	-2.083035	-0.061756	0.403948
C	-1.562268	1.340001	0.214376
C	-0.732543	0.161352	-0.239472
C	0.535923	-0.190998	0.487992
C	1.244668	-1.525269	0.167454
O	2.436261	-0.801285	-0.2765
C	1.846537	0.418184	-0.043189
O	2.304816	1.495807	-0.241324
H	-3.239187	-1.664145	-0.489597
H	-4.204316	-0.276048	0.034248
H	-3.22221	-0.166217	-1.43052
H	-2.052569	-0.43496	1.425372
H	-2.019325	1.956565	-0.552132
H	-1.226015	1.893185	1.084606
H	-0.688646	8.7e-05	-1.314396
H	0.428136	-0.008976	1.561806
H	1.478774	-2.176725	1.011621
H	0.814814	-2.101147	-0.655385
