19

C	2.643849	-1.04093	0.152061
C	1.291771	-0.382751	0.020733
C	0.186208	-1.138664	0.118166
C	-1.266953	-0.867831	-0.041288
O	-2.016025	-1.774275	-0.313707
O	-1.80129	0.366269	0.125753
C	-1.022248	1.485979	0.546074
C	0.067564	1.853156	-0.456584
C	1.375765	1.103356	-0.211909
H	3.233299	-0.563262	0.944677
H	2.561525	-2.105861	0.377106
H	3.221056	-0.928029	-0.774185
H	0.324427	-2.207134	0.255592
H	-1.753801	2.291722	0.63872
H	-0.598428	1.29904	1.54172
H	-0.319743	1.655051	-1.462096
H	0.264043	2.929546	-0.401657
H	2.069112	1.283017	-1.044972
H	1.881282	1.536074	0.665206
