19

C	-2.212378	-0.626873	0.902672
C	-1.611252	-0.003088	-0.339026
O	-2.127265	0.931448	-0.907202
C	-0.319541	-0.619032	-0.886353
C	0.955559	-0.330058	-0.054111
C	2.201079	-0.791678	-0.833303
O	0.829816	-1.100444	1.150046
C	1.070805	1.098936	0.271553
C	1.199033	2.257086	0.565865
H	-1.468862	-0.658432	1.703113
H	-3.09652	-0.065673	1.206981
H	-2.489413	-1.667789	0.696364
H	-0.414036	-1.70978	-0.939556
H	-0.179958	-0.220836	-1.893121
H	2.313553	-0.229531	-1.763987
H	3.100747	-0.63598	-0.230327
H	2.112674	-1.857069	-1.062791
H	1.512609	-0.800247	1.76012
H	1.288971	3.285546	0.81668
