19

C	-2.906787	-0.311282	-0.19826
C	-1.546338	-0.769039	-0.725936
C	-0.341365	-0.211656	0.06972
O	-0.419138	-0.607429	1.446212
C	0.970942	-0.832416	-0.450072
C	2.212454	-0.265754	0.213089
O	3.266205	-0.124265	-0.352296
C	-0.287981	1.255775	-0.032929
C	-0.254856	2.455809	-0.101899
H	-3.714273	-0.734646	-0.801912
H	-3.061438	-0.643259	0.833403
H	-2.999874	0.778687	-0.228832
H	-1.478545	-1.862028	-0.682808
H	-1.431212	-0.476661	-1.775628
H	-1.037348	-0.019045	1.891859
H	0.931025	-1.905259	-0.217385
H	1.063982	-0.720975	-1.532673
H	2.086772	-0.007572	1.284901
H	-0.212042	3.515688	-0.16453
