19

O	-2.0035	-0.613382	-1.027944
C	-0.962398	-0.290186	-0.139243
C	-1.448535	0.765788	0.885796
C	-0.357091	1.758664	0.401095
C	0.164007	0.696408	-0.625844
C	1.482834	0.067254	-0.211952
O	2.577781	0.365032	-0.617474
C	1.178748	-1.042674	0.805489
C	-0.234851	-1.522955	0.439064
H	-1.660569	-1.22076	-1.693067
H	-2.471097	1.084676	0.678039
H	-1.382943	0.459876	1.933286
H	-0.747959	2.656357	-0.079826
H	0.37382	2.066519	1.152719
H	0.162067	1.010829	-1.669791
H	1.949607	-1.815014	0.784358
H	1.19595	-0.594596	1.808221
H	-0.166202	-2.284446	-0.349995
H	-0.7832	-1.970434	1.272961
