19

C	3.021824	-0.64306	-0.150813
C	1.566829	-0.87953	0.271258
C	0.591809	0.000337	-0.490012
C	0.374446	1.4785	-0.049982
C	-0.985788	1.493643	-0.781619
C	-0.857007	0.189223	0.061437
O	-0.322547	1.006276	1.175077
C	-1.908803	-0.824585	0.375226
O	-2.230071	-1.701247	-0.386011
H	3.7012	-1.300715	0.399368
H	3.164864	-0.836421	-1.219767
H	3.330859	0.389706	0.043585
H	1.301444	-1.929613	0.096278
H	1.44704	-0.69233	1.342422
H	0.646291	-0.152477	-1.572523
H	1.098925	2.282854	0.075769
H	-1.709583	2.211837	-0.396484
H	-0.999859	1.396084	-1.868783
H	-2.380102	-0.696323	1.374643
