19

C	-1.483809	1.644425	-0.049472
C	-1.763243	0.161786	-0.135117
C	-0.744612	-0.678621	-0.905759
C	0.616854	-0.57148	-0.390412
C	1.739586	-0.493765	0.039956
C	3.101952	-0.355788	0.553394
O	3.907368	0.541015	-0.200631
C	-3.140539	-0.340214	-0.030675
O	-2.235828	-0.443615	1.072756
H	-1.464883	2.095052	-1.047898
H	-2.252216	2.143031	0.545509
H	-0.511072	1.820623	0.418882
H	-1.066208	-1.725866	-0.876059
H	-0.760515	-0.374361	-1.961409
H	3.06214	-0.062391	1.614671
H	3.618126	-1.32151	0.513982
H	3.421279	1.368692	-0.275451
H	-3.961443	0.363846	0.100105
H	-3.414663	-1.284379	-0.500815
