19

C	3.079329	-0.248826	-0.17252
C	1.731121	0.206745	-0.751602
C	0.570182	-0.084457	0.154587
C	0.139018	0.792617	1.288104
C	-0.866855	0.648414	0.184429
O	-1.361952	1.756921	-0.443484
C	-1.452437	-0.705237	0.074366
O	-2.489409	-1.052797	-0.435078
C	-0.113756	-1.449638	0.316987
H	3.290569	0.254862	0.776162
H	3.085717	-1.327677	0.013836
H	3.896056	-0.023175	-0.864909
H	1.760492	1.28474	-0.952137
H	1.566052	-0.284719	-1.719146
H	-0.049492	0.3845	2.279216
H	0.580068	1.786439	1.295755
H	-1.933727	1.443279	-1.157154
H	0.016822	-1.948268	1.281956
H	0.078711	-2.160684	-0.491192
