19

C	0.596442	1.847552	0.763806
C	0.322608	0.603351	-0.088831
C	1.66961	0.072754	-0.519561
O	2.136821	-0.970226	-0.122175
C	-0.86433	0.602167	-1.124897
C	-1.845606	0.476275	0.088234
C	-0.686871	-0.506383	0.374571
O	-0.569945	-1.294918	1.494796
C	-0.808417	-0.949295	-1.128214
H	1.308815	2.511362	0.259441
H	-0.302949	2.431379	0.962645
H	1.036427	1.562862	1.725521
H	2.263566	0.736272	-1.190342
H	-0.973639	1.25754	-1.986122
H	-1.966931	1.333015	0.749837
H	-2.811215	0.020606	-0.142872
H	0.293895	-1.72414	1.434511
H	0.054479	-1.430329	-1.589176
H	-1.738075	-1.455942	-1.395058
