19

C	-2.014229	1.263052	-0.724685
C	-2.051281	-0.074318	-0.008732
O	-2.916091	-0.890263	-0.2179
C	-0.936547	-0.356328	1.013637
C	0.449635	-0.247655	0.439833
C	1.128818	-1.160677	-0.251827
C	2.483213	-0.630405	-0.621741
O	2.514913	0.702075	-0.111645
C	1.315126	0.980069	0.595048
H	-1.970128	2.087594	-0.004589
H	-1.114733	1.330797	-1.345837
H	-2.898794	1.366934	-1.353748
H	-1.052822	0.354758	1.842877
H	-1.123653	-1.358669	1.40477
H	0.790307	-2.156332	-0.511169
H	3.299768	-1.224505	-0.179796
H	2.652214	-0.6121	-1.709733
H	1.531598	1.184602	1.658086
H	0.847258	1.889985	0.18631
