19

C	3.508805	-0.264845	0.066758
C	2.085174	0.034794	0.023524
C	0.912675	0.314289	-0.005087
C	-0.507834	0.578272	-0.053611
C	-0.998035	1.867241	-0.576244
O	-1.006551	1.602483	0.82597
C	-1.394044	-0.667052	-0.147388
C	-1.341857	-1.496063	1.135044
O	-1.055083	-1.425251	-1.297445
H	3.70562	-1.194548	0.611201
H	3.924095	-0.371779	-0.941262
H	4.059014	0.537772	0.569523
H	-0.280548	2.616387	-0.905071
H	-1.974604	1.902932	-1.057475
H	-2.419806	-0.322563	-0.315219
H	-1.988793	-2.371546	1.037105
H	-0.320185	-1.838295	1.333087
H	-1.674035	-0.90077	1.990645
H	-0.126994	-1.67526	-1.208704
