19

O	-0.037028	-1.221326	1.223605
C	0.172635	-0.381034	0.074524
C	-1.142365	-0.474558	-0.719165
C	-2.349399	-0.015059	0.072006
O	-3.131818	0.818627	-0.311751
C	1.410616	-0.825206	-0.75985
C	2.552676	0.161652	-0.411148
C	1.831847	1.294131	0.278927
C	0.548382	1.021558	0.508594
H	0.654229	-1.015008	1.861753
H	-1.084264	0.109008	-1.640793
H	-1.297539	-1.531433	-0.978194
H	-2.470638	-0.511792	1.056736
H	1.649908	-1.86766	-0.538022
H	1.179088	-0.760881	-1.826912
H	3.310596	-0.280994	0.248923
H	3.093211	0.499783	-1.302235
H	2.331727	2.215742	0.558356
H	-0.161899	1.67592	1.002236
