19

O	2.906078	-0.492711	-0.548783
C	2.284204	0.440915	0.330779
C	0.781005	0.359251	0.283256
C	0.033447	1.422232	-0.0554
C	-1.421793	1.506748	-0.103886
C	-2.329235	0.519136	-0.075701
C	-2.1095	-0.966017	-0.089327
O	-0.799289	-1.410831	-0.335882
C	0.176315	-0.987248	0.607655
H	2.540873	-0.341624	-1.427573
H	2.656663	0.173789	1.328392
H	2.611324	1.471218	0.126113
H	0.554736	2.352367	-0.276738
H	-1.810003	2.522264	-0.147856
H	-3.382325	0.797284	-0.071288
H	-2.50653	-1.396821	0.849534
H	-2.713696	-1.401149	-0.897075
H	-0.255146	-0.972785	1.621953
H	0.963135	-1.746315	0.587603
