19

C	-2.430983	-0.866258	-0.453286
C	-1.009275	-0.334109	-0.55575
C	-0.821512	1.132161	-0.063693
O	-0.630734	0.626784	1.297916
C	-0.144371	-0.603067	0.698294
C	1.356808	-0.42743	0.416529
O	1.762549	-1.548593	-0.367467
C	1.565982	0.892487	-0.306451
C	0.506793	1.660174	-0.559801
H	-3.068826	-0.437113	-1.233637
H	-2.448663	-1.955143	-0.570708
H	-2.868064	-0.619719	0.518983
H	-0.550623	-0.575653	-1.516051
H	-1.652527	1.83808	-0.132279
H	-0.350372	-1.488741	1.305983
H	1.897597	-0.419301	1.376622
H	2.702106	-1.462205	-0.556805
H	2.576893	1.166489	-0.599123
H	0.567305	2.60403	-1.091627
