19

O	1.311685	-1.63031	-0.726823
C	1.307717	-0.597071	0.215151
C	0.161536	-0.437113	1.267258
O	0.532837	0.994358	1.320468
C	0.490203	0.674448	-0.138206
C	0.777614	1.758045	-1.125797
C	-0.807712	-0.114507	0.130848
C	-1.750091	-0.897915	-0.708977
C	-2.237651	0.291415	0.112925
H	1.828181	-2.361082	-0.374083
H	2.297561	-0.369778	0.627376
H	-0.00907	-0.949553	2.214493
H	1.760003	2.200007	-0.934416
H	0.774946	1.34701	-2.140177
H	0.022749	2.547873	-1.065361
H	-1.695282	-0.787235	-1.787083
H	-2.028721	-1.894476	-0.382117
H	-2.51207	1.197917	-0.417855
H	-2.844173	0.093119	0.990847
