19

O	-0.014272	2.107644	-0.647467
C	-0.061708	1.102861	0.367195
C	-1.489421	0.722481	0.683464
C	-1.986798	-0.461836	0.333946
C	-1.162704	-1.482758	-0.399367
O	0.023871	-0.931279	-0.950817
C	0.719768	-0.138042	-0.018893
C	2.195921	-0.081376	-0.209598
C	1.617449	-0.836676	0.973114
H	-0.387166	1.704518	-1.44055
H	0.406296	1.568483	1.241683
H	-2.103565	1.470899	1.175375
H	-3.012356	-0.737656	0.566683
H	-0.921268	-2.327084	0.27069
H	-1.724368	-1.897458	-1.244077
H	2.603229	-0.671089	-1.02274
H	2.69141	0.867509	-0.037895
H	1.649601	-1.919651	0.930254
H	1.726354	-0.417316	1.96768
