19

C	-0.923183	2.015762	-0.037446
C	-0.680251	0.610681	-0.573182
C	-1.582743	-0.49234	-0.016682
O	-2.747052	-0.723909	0.058479
O	-0.542782	-1.246614	0.461803
C	0.453825	-0.271883	0.008612
C	1.610014	-0.780991	-0.869984
C	2.562404	0.152868	-0.069998
C	1.473872	0.252192	1.036544
H	-0.147989	2.708551	-0.379276
H	-1.889304	2.38608	-0.391701
H	-0.940837	2.032358	1.055952
H	-0.683918	0.608296	-1.667867
H	1.806629	-1.836567	-0.664431
H	1.524128	-0.639014	-1.950128
H	3.530274	-0.257127	0.221429
H	2.725015	1.108104	-0.575191
H	1.624182	-0.48911	1.825793
H	1.286865	1.224881	1.49598
