19

C	2.255758	-1.367072	-0.276758
C	1.473588	-0.250007	0.405849
O	2.316295	0.687845	1.069029
C	0.564041	0.489498	-0.572786
C	-0.505979	1.41515	0.033731
C	-1.523345	0.452228	-0.63817
O	-0.444615	-0.377885	-1.147963
C	-2.443148	-0.264017	0.229326
C	-3.206658	-0.843555	0.954801
H	2.918571	-0.959528	-1.051554
H	2.868716	-1.906579	0.450115
H	1.570207	-2.069826	-0.758104
H	0.843003	-0.676148	1.195151
H	2.986016	0.977006	0.43915
H	1.175174	0.953629	-1.36236
H	-0.533324	1.424191	1.123156
H	-0.528392	2.437683	-0.342713
H	-2.077423	0.906446	-1.469359
H	-3.88154	-1.359898	1.592032
