19

O	-3.220859	-0.058882	0.572871
C	-2.369611	-0.58268	-0.444814
C	-0.945977	-0.162953	-0.2656
C	0.142005	-0.923289	-0.142704
C	1.336967	-0.071214	0.020131
C	2.515326	-0.411262	0.895255
C	2.676882	-0.356687	-0.611459
O	0.880823	1.267664	0.026608
C	-0.531177	1.286942	-0.180835
H	-2.885281	-0.378726	1.417201
H	-2.434454	-1.679225	-0.503818
H	-2.773531	-0.181472	-1.382573
H	0.183987	-2.005317	-0.166224
H	2.932013	0.407997	1.470449
H	2.536406	-1.375995	1.391368
H	3.198902	0.499094	-1.024663
H	2.810011	-1.283536	-1.159587
H	-1.023327	1.815835	0.647237
H	-0.770923	1.837954	-1.105063
