19

O	-2.526162	-1.100368	-0.219643
C	-1.348354	-0.562643	0.348016
C	-1.552082	0.950218	0.619684
C	-0.483733	1.312584	-0.447673
C	0.967359	1.480127	0.083953
C	1.159929	-0.03576	-0.049966
C	1.959345	-0.969205	0.750008
O	2.339911	-0.610776	-0.584961
C	-0.225369	-0.225639	-0.67732
H	-2.332294	-1.996316	-0.515144
H	-1.014685	-1.163088	1.206821
H	-2.566221	1.251885	0.350535
H	-1.340005	1.288283	1.637626
H	-0.794099	1.989046	-1.242618
H	1.615458	2.018366	-0.61366
H	1.082822	1.915973	1.080943
H	2.607187	-0.587691	1.538704
H	1.630421	-2.000059	0.880168
H	-0.26115	-0.725344	-1.646752
