19

C	-2.162465	-1.149213	-0.323046
C	-0.669137	-1.091053	0.003956
C	-0.286924	-0.401016	1.369572
C	0.775333	0.618083	0.88959
C	0.076543	1.229833	-0.373381
O	-1.156946	1.882005	-0.252049
C	0.196168	-0.229882	-0.95833
C	1.511798	-0.236019	-0.160412
O	2.626951	-0.63254	-0.322907
H	-2.597321	-0.154743	-0.448158
H	-2.331797	-1.696207	-1.256193
H	-2.709167	-1.671299	0.470289
H	-0.286354	-2.117414	0.004311
H	-1.147742	0.088684	1.843824
H	0.115654	-1.104797	2.101399
H	1.292476	1.224585	1.630245
H	0.737822	1.91374	-0.910834
H	-1.634256	1.521549	0.501103
H	0.152756	-0.44422	-2.024026
