19

C	2.484983	-0.554768	0.114155
C	1.293252	-0.789664	-0.858749
C	0.50916	0.267747	-0.067275
C	1.831081	0.794544	0.528707
O	-0.377737	1.193579	-0.744281
C	-1.466423	0.893038	0.142605
C	-2.319972	-0.299269	-0.318888
O	-1.438645	-1.234525	0.360503
C	-0.628979	-0.165788	0.8803
H	2.496195	-1.277754	0.933631
H	3.483987	-0.507941	-0.321975
H	1.512587	-0.42482	-1.866161
H	0.844323	-1.782789	-0.921347
H	2.204198	1.630287	-0.069771
H	1.836732	1.081983	1.584041
H	-1.947199	1.780385	0.556546
H	-3.332629	-0.339454	0.101414
H	-2.352689	-0.454063	-1.402239
H	-0.433054	-0.25331	1.950958
