19

O	-2.700079	-0.304487	-0.421313
C	-1.558994	-0.086769	-0.091587
C	-0.862177	1.229773	-0.417134
C	0.274745	1.578833	0.555852
C	1.339508	0.481005	0.627952
C	2.005445	0.098236	-0.710166
O	1.213481	-1.104887	-0.80725
C	0.756532	-0.956906	0.560358
C	-0.746495	-1.117435	0.691353
H	-0.468029	1.123253	-1.436653
H	-1.622296	2.014326	-0.460111
H	0.739087	2.527636	0.262481
H	-0.141633	1.740232	1.55847
H	2.03109	0.667078	1.452227
H	1.84238	0.769312	-1.562183
H	3.077875	-0.124907	-0.635704
H	1.273581	-1.66965	1.217451
H	-1.066093	-2.117102	0.382033
H	-1.024562	-1.015615	1.750724
