19

O	1.408459	-1.187221	-1.128881
C	0.823765	-0.538129	-0.040923
C	1.765397	0.554244	0.556001
C	0.798393	1.688898	0.063544
C	-0.240814	0.605956	-0.148336
O	-1.329441	0.600043	-1.062951
C	-2.157122	-0.121013	-0.10757
C	-1.049217	-0.107122	0.970178
C	-0.065075	-1.314029	0.969801
H	0.697078	-1.502095	-1.698535
H	1.880431	0.50363	1.640773
H	2.749425	0.551965	0.08708
H	0.559224	2.503276	0.752616
H	1.13883	2.112618	-0.885861
H	-3.056505	0.453585	0.140046
H	-2.452962	-1.109063	-0.482059
H	-1.299959	0.359994	1.922144
H	0.399373	-1.559502	1.92917
H	-0.499042	-2.229815	0.553109
