19

O	3.003072	0.088624	-0.63185
C	2.090453	-0.789612	0.007962
C	0.770415	-0.143789	0.341689
C	0.601693	1.315988	0.648542
C	-0.13998	0.728528	-0.532355
C	-1.342515	-0.031067	-0.019538
C	-2.746996	0.363914	0.098467
O	-2.309839	-0.59279	-0.884819
C	-0.452393	-0.925626	0.865891
H	3.354255	0.684979	0.036218
H	1.927708	-1.616378	-0.693693
H	2.529714	-1.22787	0.919449
H	0.061849	1.644518	1.534128
H	1.435293	1.952242	0.369079
H	0.005546	1.081614	-1.545495
H	-3.363995	-0.045217	0.897678
H	-3.076862	1.322496	-0.300154
H	-0.620565	-0.915373	1.947705
H	-0.48287	-1.957697	0.504489
