19

C	-2.614316	0.722408	0.599164
C	-1.734588	0.037503	-0.425798
O	-1.288302	-1.299422	-0.010726
C	0.072031	-1.018111	-0.436798
C	1.22704	-1.153718	0.551662
O	2.258963	-0.304715	0.053461
C	1.972741	1.088394	0.068632
C	0.534959	1.429387	-0.244553
C	-0.281165	0.433158	-0.547727
H	-2.884432	1.726505	0.254861
H	-3.537894	0.153765	0.745096
H	-2.096705	0.80503	1.558224
H	-2.257435	-0.037464	-1.391271
H	0.303507	-1.540376	-1.37452
H	0.891532	-0.858362	1.55659
H	1.661653	-2.15534	0.59836
H	2.213577	1.512744	1.059908
H	2.671353	1.538353	-0.647059
H	0.209341	2.454119	-0.08956
