19

C	2.321485	-0.626834	-0.42601
C	0.820506	-0.491219	-0.656163
C	-0.017325	-1.459381	0.189039
C	-1.430791	-0.932879	0.310505
O	-1.910052	-0.02659	-0.66364
C	-1.110309	1.152613	-0.564187
C	0.161976	0.69197	0.147688
O	0.934897	1.783627	0.534792
C	-0.379271	-0.350688	1.185784
H	2.867749	0.211023	-0.871566
H	2.565013	-0.67067	0.643531
H	2.701625	-1.549032	-0.876774
H	0.605802	-0.487751	-1.732084
H	0.229847	-2.49749	0.38637
H	-2.200121	-1.591625	0.695243
H	-0.916588	1.532584	-1.572074
H	-1.620408	1.930008	0.023628
H	1.741516	1.459431	0.947887
H	-0.370826	-0.294259	2.266686
