19

C	1.527946	-1.477933	-0.625881
C	0.384751	-0.707383	-0.026611
O	0.439629	-0.614134	1.428535
C	0.413996	0.838015	1.394299
C	0.195689	0.829866	-0.123888
O	1.02196	1.69382	-0.838716
C	-1.235657	0.60074	-0.673105
C	-2.07717	-0.263183	0.226668
C	-1.034428	-0.924816	-0.620065
H	1.479235	-2.528963	-0.319933
H	1.487816	-1.443848	-1.719922
H	2.486559	-1.067035	-0.298573
H	-0.375238	1.258636	2.026731
H	1.383655	1.265947	1.675169
H	0.812742	1.611915	-1.775563
H	-1.680184	1.214955	-1.449444
H	-1.957537	-0.242201	1.303982
H	-3.100479	-0.401657	-0.108178
H	-1.280045	-1.677071	-1.361328
