19

O	-2.508006	-0.813789	-0.181801
C	-1.481133	-0.522905	0.74492
C	-0.402963	0.346808	0.111923
O	-1.048516	1.495881	-0.456554
C	0.863928	0.717712	0.875316
C	1.918986	-0.368128	0.587927
C	1.283553	-1.405679	-0.337549
C	0.546233	-0.207734	-0.989405
C	1.671043	0.741295	-0.399862
H	-2.660116	0.015577	-0.653538
H	-1.873908	0.005706	1.634672
H	-1.074977	-1.475133	1.096586
H	-1.275981	2.094928	0.263554
H	0.953446	1.370027	1.73654
H	2.767387	-0.489259	1.250028
H	2.029596	-1.825878	-1.017891
H	0.682906	-2.218308	0.08386
H	0.192891	-0.2373	-2.016733
H	2.313038	1.494683	-0.829862
