19

O	2.884735	-0.432924	0.54422
C	2.100935	-0.033691	-0.579534
C	0.702681	0.339199	-0.189162
C	0.097105	1.511951	-0.403662
C	-1.30988	1.571384	0.142709
C	-1.546949	0.137031	0.641559
O	-2.142119	-0.716659	-0.364248
C	-0.997972	-1.595337	-0.372107
C	-0.201147	-0.628152	0.535806
H	2.906597	0.312682	1.15349
H	2.574659	0.792961	-1.129486
H	2.097754	-0.906637	-1.243694
H	0.557877	2.350824	-0.916848
H	-1.403631	2.314892	0.945918
H	-2.055863	1.82883	-0.618702
H	-2.101005	0.080671	1.584948
H	-1.226766	-2.565612	0.088267
H	-0.609547	-1.759644	-1.384482
H	0.250358	-1.066607	1.427158
