19

C	-1.674418	-0.438017	0.672917
O	-1.244266	-1.523988	-0.155675
C	0.030226	-1.345806	-0.749893
C	1.066585	-0.960595	0.280897
O	2.26673	-0.337869	-0.168453
C	1.346046	0.448946	0.604143
C	0.729266	1.644023	-0.112397
C	-0.762131	1.7323	-0.331797
C	-1.757723	0.894549	-0.032861
H	-2.66996	-0.736709	1.010202
H	-1.037998	-0.365939	1.563962
H	0.279435	-2.310617	-1.202924
H	0.006483	-0.59338	-1.549122
H	1.209438	-1.697227	1.07442
H	1.700264	0.650844	1.615451
H	1.047009	2.557372	0.408835
H	1.21007	1.706743	-1.09779
H	-1.037308	2.645673	-0.859467
H	-2.754252	1.185698	-0.356601
