19

C	2.785168	0.359407	0.16114
O	2.389947	-0.956553	-0.233546
C	1.439935	0.102939	-0.366373
C	0.218337	0.034308	0.523816
C	-0.611966	1.343592	0.456221
O	-1.590967	1.163804	-0.565404
C	-1.851074	-0.212986	-0.676957
C	-2.171608	-0.993872	0.570271
C	-0.76497	-1.003742	-0.006327
H	2.923248	0.502621	1.232514
H	3.537193	0.831618	-0.469443
H	1.234782	0.38768	-1.400406
H	0.539736	-0.173158	1.549839
H	-1.096053	1.541343	1.421815
H	-0.012781	2.22151	0.195545
H	-2.297406	-0.46471	-1.63117
H	-2.366613	-0.462621	1.49588
H	-2.754106	-1.900848	0.448858
H	-0.36277	-1.919324	-0.422565
