19

C	2.61298	-1.037454	0.065584
C	1.795346	0.242339	0.015674
O	2.340725	1.327753	0.00918
C	0.302286	0.114293	-0.029145
C	-0.442729	1.226093	-0.080575
C	-1.940727	1.194265	-0.076815
C	-2.43553	-0.191505	0.343446
O	-1.73106	-1.205956	-0.351284
C	-0.359163	-1.248044	-0.012792
H	3.666861	-0.784457	0.182623
H	2.292651	-1.682579	0.891315
H	2.480735	-1.612523	-0.858355
H	0.069024	2.183768	-0.117568
H	-2.336181	1.963078	0.599271
H	-2.31797	1.447117	-1.077708
H	-2.31364	-0.317284	1.432034
H	-3.492635	-0.332209	0.103533
H	-0.224688	-1.723419	0.976809
H	0.103733	-1.9158	-0.747387
