19

O	-2.470762	-0.536391	-0.140822
C	-1.428551	0.165035	0.497944
C	-0.842302	1.36319	-0.323231
C	0.667056	1.136273	-0.254114
C	1.198394	-0.157657	-0.954602
C	2.183294	-0.333957	0.220519
C	0.985136	0.254752	1.007069
C	-0.180764	-0.708433	0.702585
O	0.18048	-1.133308	-0.646244
H	-2.05112	-0.99111	-0.883824
H	-1.834236	0.504959	1.45722
H	-1.231834	1.340195	-1.345377
H	-1.122266	2.327508	0.110549
H	1.311502	2.004372	-0.392483
H	1.46857	-0.224317	-2.007818
H	2.51686	-1.351168	0.436931
H	3.027196	0.358332	0.185525
H	1.060898	0.655897	2.016979
H	-0.316895	-1.582295	1.341803
