19

C	0.50286	2.028081	-0.189998
C	0.299513	0.651317	0.442108
C	1.465854	-0.306727	0.134671
O	2.640136	-0.032399	0.218396
C	0.878132	-1.605397	-0.272092
C	-0.449899	-1.504955	-0.350897
C	-0.981792	-0.129038	0.006987
C	-2.041535	-0.200268	1.112659
O	-1.567363	0.371988	-1.197303
H	-0.243812	2.748561	0.161169
H	1.49283	2.403925	0.080263
H	0.437877	1.96977	-1.278901
H	0.292137	0.765382	1.534153
H	1.484892	-2.474595	-0.492566
H	-1.134554	-2.288396	-0.658857
H	-2.388468	0.806804	1.375049
H	-2.904237	-0.783144	0.776465
H	-1.639056	-0.659954	2.02042
H	-2.018592	1.196855	-0.986569
