19

C	1.066797	1.890457	0.428586
C	0.861104	0.452582	0.073889
O	2.002131	-0.325573	-0.458974
C	0.875223	-1.262831	-0.438155
C	0.429257	-0.762148	0.962268
C	-1.089351	-0.824266	1.054913
C	-1.471949	-0.341806	-0.382711
O	-2.116463	0.926821	-0.407057
C	-0.090505	-0.181474	-0.992779
H	1.791828	1.992735	1.24195
H	1.437279	2.445587	-0.438656
H	0.114357	2.330288	0.736716
H	1.052624	-2.279855	-0.78964
H	1.050894	-1.014001	1.821181
H	-1.452766	-1.834345	1.271987
H	-1.500611	-0.145951	1.809357
H	-2.078568	-1.086977	-0.916833
H	-2.988686	0.827178	-0.012725
H	0.004848	0.132273	-2.031163
