19

O	2.997818	-0.193772	0.154091
C	1.71803	-0.006628	-0.369732
C	0.608783	-0.737774	0.304767
O	-0.336968	-1.280325	-0.558835
C	-1.679547	-1.273775	-0.097353
C	-2.149504	0.066469	0.510678
C	-1.639564	1.281901	-0.226707
C	-0.34589	1.608176	-0.245373
C	0.688491	0.780129	0.430083
H	3.481819	0.633377	0.058848
H	1.643577	0.049899	-1.455546
H	0.863381	-1.335786	1.180266
H	-2.273369	-1.518117	-0.983446
H	-1.83697	-2.074843	0.641658
H	-3.243929	0.052067	0.535518
H	-1.820103	0.116787	1.55467
H	-2.360489	1.904874	-0.749627
H	-0.01693	2.506449	-0.764773
H	1.071424	1.14708	1.382204
