19

O	2.553105	-0.270565	-0.531402
C	1.733754	-0.789943	0.514775
C	0.267776	-0.678947	0.225269
C	-0.603901	-1.681333	0.104731
C	-1.977446	-1.140231	-0.170096
O	-1.808598	0.27347	-0.244804
C	-0.458805	0.604277	0.029665
C	-0.203194	1.856364	0.832189
C	0.100894	1.822662	-0.653662
H	2.294569	-0.717497	-1.34473
H	1.983606	-1.838476	0.732839
H	1.998497	-0.20205	1.401124
H	-0.386415	-2.737617	0.205479
H	-2.401195	-1.512021	-1.116184
H	-2.69531	-1.394811	0.62689
H	-1.086349	2.398822	1.150236
H	0.624026	1.877466	1.533847
H	-0.5797	2.352102	-1.311236
H	1.13774	1.793763	-0.965846
