19

O	-2.383641	-0.462103	-0.746543
C	-1.578675	0.170255	0.229141
C	-0.679182	1.261165	-0.487101
C	0.628718	0.611248	-0.076878
C	0.427632	0.341713	1.461086
C	-0.491045	-0.76147	0.895798
C	0.456468	-0.893855	-0.318945
C	2.013064	-0.805746	-0.392889
O	1.970889	0.657737	-0.550105
H	-2.894519	-1.151491	-0.308994
H	-2.201599	0.623314	1.013676
H	-0.860803	1.243778	-1.5633
H	-0.85143	2.268631	-0.100131
H	1.326675	-0.02738	1.952488
H	-0.033207	1.129794	2.062854
H	-0.88354	-1.585484	1.497013
H	0.007249	-1.234797	-1.251157
H	2.587578	-1.098959	0.491312
H	2.443727	-1.272335	-1.281849
