19

O	-2.538056	-1.016437	-0.490751
C	-1.990303	0.237432	-0.20112
C	-1.439012	0.51924	1.178727
C	-0.512366	0.283252	-0.002267
C	0.352469	1.418123	-0.555521
C	1.768298	1.069711	-0.068212
C	1.786538	-0.461661	0.029487
O	2.767583	-1.146812	0.155612
C	0.342531	-0.973282	-0.059732
H	-3.400955	-1.071643	-0.066947
H	-2.450435	1.070719	-0.734978
H	-1.536279	1.524178	1.578218
H	-1.52156	-0.276209	1.912634
H	0.319917	1.408869	-1.652516
H	0.013497	2.404454	-0.228352
H	2.582865	1.434392	-0.697712
H	1.942593	1.457091	0.9442
H	0.225875	-1.492134	-1.020716
H	0.139344	-1.710621	0.719098
