19

C	2.686423	0.345565	0.606016
C	1.469702	-0.075606	-0.21176
C	1.001245	-1.518922	0.010677
O	-0.398692	-1.564482	-0.298455
C	-0.888287	-0.23896	-0.498069
C	-2.206475	-0.062608	0.09901
C	-3.28327	0.145154	0.591576
C	0.189763	0.700262	0.100099
O	0.219646	1.983404	-0.478414
H	2.910389	1.402669	0.437677
H	2.508265	0.20114	1.677797
H	3.572788	-0.235552	0.331856
H	1.675807	0.077437	-1.278979
H	1.526149	-2.238608	-0.626767
H	1.149439	-1.823022	1.057496
H	-0.952021	-0.018858	-1.576088
H	-4.240909	0.305425	1.022135
H	0.044022	0.756361	1.189884
H	-0.576156	2.452335	-0.205357
