19

C	1.057242	2.228534	-0.2672
C	-0.022021	1.175375	-0.404942
C	-0.759222	0.758623	0.846595
C	-1.929138	-0.22473	0.533199
O	-2.01857	-0.427472	-0.884751
C	-1.020197	-1.142465	-0.143865
C	0.204624	-0.211656	0.164005
C	1.501502	-0.792939	0.635425
O	2.158034	-1.535498	-0.387636
H	1.804621	2.140956	-1.063851
H	0.619141	3.229688	-0.334713
H	1.582011	2.164396	0.69085
H	-0.604397	1.240136	-1.317203
H	-0.632204	1.264769	1.795368
H	-2.824341	-0.389828	1.120192
H	-0.999073	-2.221781	-0.233412
H	2.151959	-0.005561	1.044255
H	1.326801	-1.51414	1.442672
H	2.263027	-0.949321	-1.144363
