19

C	-2.587742	-0.283723	-0.181768
O	-1.362252	-0.963733	-0.384089
C	-0.329817	-0.588176	0.514392
C	0.724776	-1.665244	0.502758
C	1.839759	-1.275347	-0.114064
C	1.766878	0.148071	-0.605467
C	0.476547	0.645639	0.047956
C	0.390204	1.940802	0.735024
O	-0.22311	1.735768	-0.543153
H	-2.494925	0.791145	-0.369625
H	-3.305699	-0.712492	-0.88565
H	-2.965735	-0.437288	0.841945
H	-0.764536	-0.424886	1.51373
H	0.533093	-2.651234	0.908176
H	2.714252	-1.897362	-0.270373
H	2.637621	0.748058	-0.318411
H	1.695383	0.19568	-1.699846
H	-0.299807	2.069655	1.568671
H	1.249614	2.610309	0.736329
