19

O	-3.586169	-0.100438	-0.21078
C	-2.461561	-0.420417	0.079319
C	-1.338783	0.547609	0.37125
C	-0.089284	0.30571	-0.491064
C	1.041423	1.365694	-0.248388
C	2.133046	0.391325	0.235788
C	2.085896	-0.756303	-0.795947
C	0.739326	-0.937184	-0.065815
O	1.38444	-0.46744	1.158718
H	-2.182413	-1.498233	0.147944
H	-1.723873	1.562327	0.233997
H	-1.044573	0.430949	1.423795
H	-0.368929	0.250212	-1.548179
H	1.323022	1.913825	-1.151077
H	0.773862	2.085163	0.528824
H	3.056602	0.792944	0.651483
H	2.090868	-0.518546	-1.862969
H	2.789181	-1.553836	-0.556176
H	0.239707	-1.900387	0.037998
