19

O	-0.478216	-1.418613	1.205831
C	-0.723948	-1.319956	-0.198373
C	0.588133	-0.990867	-0.955304
C	1.369474	0.11775	-0.257322
O	2.40633	-0.13367	0.315715
C	0.795503	1.525866	-0.272554
C	-0.516266	1.663633	0.545557
C	-1.715098	0.998361	-0.085788
C	-1.807418	-0.288984	-0.417981
H	0.329852	-1.928991	1.333722
H	-1.086588	-2.285085	-0.581068
H	1.235473	-1.873713	-0.972985
H	0.348487	-0.714521	-1.9876
H	1.560447	2.184058	0.147309
H	0.602503	1.829539	-1.308901
H	-0.347209	1.251967	1.54646
H	-0.718432	2.731286	0.668959
H	-2.570765	1.639174	-0.286262
H	-2.72096	-0.650274	-0.88141
