19

C	-1.999205	-1.086578	-0.179616
C	-0.846283	-0.138463	-0.041248
O	-1.181725	1.265613	0.120018
C	0.202686	1.403485	0.561333
C	0.940379	1.213459	-0.779035
C	0.336864	-0.184482	-1.076007
O	1.20135	-1.203093	-0.578197
C	1.293974	-0.985448	0.843448
C	0.138876	-0.043061	1.152504
H	-2.599523	-0.829604	-1.058916
H	-1.627423	-2.107926	-0.306122
H	-2.649255	-1.053674	0.699277
H	0.391068	2.290486	1.165545
H	0.634714	1.986774	-1.486578
H	2.030954	1.17588	-0.722428
H	0.096791	-0.415957	-2.112962
H	1.193327	-1.951506	1.350289
H	2.27578	-0.566314	1.105095
H	-0.307179	-0.101785	2.143964
