19

C	-2.190826	-0.66214	-0.035179
O	-2.133632	0.789219	0.079632
C	-0.714933	0.700226	0.354864
C	0.248462	1.709909	-0.168776
C	1.539393	1.369268	-0.189271
C	2.083894	0.049639	0.348104
C	1.53125	-1.283221	-0.21609
O	0.19657	-1.622269	0.160217
C	-0.685415	-0.664774	-0.335081
H	-2.443771	-1.134402	0.923994
H	-2.883842	-0.987897	-0.814582
H	-0.567483	0.562337	1.441354
H	-0.106949	2.674607	-0.51673
H	2.274456	2.082076	-0.552557
H	3.164984	0.020345	0.172737
H	1.956787	0.022396	1.440553
H	1.611513	-1.274797	-1.314849
H	2.150816	-2.100132	0.163923
H	-0.530971	-0.513569	-1.41406
