19

O	-2.598347	0.185311	-0.547931
C	-1.814184	-0.673014	0.273749
C	-0.415693	-0.125287	0.312695
C	-0.104878	1.341103	0.726996
C	1.17066	1.148276	-0.106974
C	1.82806	-0.242245	0.2656
C	0.687287	-0.89119	1.074822
O	1.54659	-0.755284	-1.072214
C	0.439525	0.150724	-1.026063
H	-3.492001	-0.167427	-0.585199
H	-2.227536	-0.730068	1.294821
H	-1.793854	-1.698961	-0.128678
H	-0.781997	2.052919	0.249447
H	-0.02504	1.55874	1.796554
H	1.815926	1.946955	-0.467604
H	2.864374	-0.365365	0.576991
H	0.681628	-1.973034	0.922045
H	0.695131	-0.666027	2.145037
H	-0.067248	0.351839	-1.967209
