19

C	-1.312319	1.668353	-0.701798
C	-0.265583	0.804925	-0.039342
C	-0.234525	0.647631	1.49931
O	-0.25936	-0.79921	1.402995
C	-0.287961	-0.756606	-0.035182
C	-1.338315	-1.631513	-0.663772
C	1.12151	-0.744876	-0.713961
O	2.013834	-0.003304	0.117736
C	1.128208	0.73175	-0.724565
H	-1.335469	1.508002	-1.785701
H	-2.31217	1.456128	-0.310107
H	-1.106959	2.732162	-0.532248
H	0.662821	1.008877	2.009011
H	-1.133261	1.023235	2.004471
H	-1.139323	-2.681951	-0.422813
H	-2.334862	-1.380629	-0.290186
H	-1.334846	-1.528227	-1.754156
H	1.563144	-1.473024	-1.387279
H	1.569047	1.437557	-1.420991
