19

C	3.902049	0.043343	-0.00027
C	2.583541	-0.726162	6.9e-05
C	1.373208	0.184911	8.3e-05
O	1.396962	1.38938	-5.1e-05
O	0.229856	-0.537343	0.000294
C	-0.988566	0.22244	0.000354
C	-2.135867	-0.789862	-0.000223
C	-3.435314	-0.131118	-0.000161
C	-4.493389	0.438032	-0.000106
H	3.98037	0.685858	0.880256
H	4.748408	-0.648911	-0.000606
H	3.97979	0.686034	-0.880717
H	2.502528	-1.386639	-0.871468
H	2.502783	-1.386264	0.871918
H	-1.024163	0.865722	0.883917
H	-1.023833	0.866397	-0.882721
H	-2.039865	-1.438611	-0.879084
H	-2.040137	-1.439312	0.87815
H	-5.434404	0.929929	-6.5e-05
