19

O	-2.516826	-0.127458	0.092586
C	-1.199386	-0.64038	0.072426
C	-0.303427	-0.034574	-1.048512
C	0.998197	-0.844411	-1.182107
C	1.593963	-1.100551	0.186428
C	0.969034	-0.63475	1.272738
C	-0.31534	0.140044	1.084715
C	-0.089866	1.172622	-0.075443
O	1.077368	1.937189	-0.132227
H	-2.952844	-0.396227	-0.722815
H	-1.188504	-1.73338	0.175272
H	-0.768687	0.157299	-2.020178
H	0.806597	-1.796215	-1.696079
H	1.715457	-0.302601	-1.814233
H	2.521932	-1.661367	0.254264
H	1.362511	-0.792308	2.271953
H	-0.778989	0.4722	2.013532
H	-0.929543	1.86392	-0.134674
H	1.808678	1.362836	0.128616
