19

O	2.662129	-0.480187	-0.3491
C	1.846959	0.406157	-0.284648
C	0.432781	0.260943	0.20518
C	-0.196275	1.534805	0.843198
C	-1.372322	1.491662	-0.166233
C	-0.688018	0.320551	-0.922289
C	-1.367136	-1.042448	-0.801259
O	-1.204213	-1.419808	0.557892
C	0.134133	-1.073071	0.904893
H	2.104184	1.438071	-0.622074
H	-0.45849	1.433841	1.898897
H	0.440753	2.417673	0.730213
H	-2.326869	1.20529	0.281745
H	-1.521097	2.40094	-0.752234
H	-0.350951	0.547867	-1.935334
H	-2.439344	-1.015663	-1.017848
H	-0.888033	-1.773402	-1.473305
H	0.190126	-1.014262	1.99497
H	0.845663	-1.831987	0.551583
