19

C	2.899302	0.246044	-0.312576
O	1.731105	0.53205	0.427104
C	0.786764	-0.511181	0.397482
C	-0.454128	-0.114676	1.177906
C	-1.609803	-0.801468	0.428827
O	-1.050025	-1.59423	-0.624146
C	-0.147926	-0.479337	-0.853269
C	-1.102353	0.507203	-0.06548
C	-1.698667	1.844222	-0.351694
H	2.69267	0.099239	-1.383061
H	3.568942	1.101842	-0.199746
H	3.406099	-0.655062	0.065005
H	1.260656	-1.481513	0.61092
H	-0.521375	0.206423	2.20969
H	-2.543181	-1.107481	0.883878
H	0.219776	-0.403069	-1.875027
H	-2.290175	1.831796	-1.27401
H	-2.360277	2.151892	0.465291
H	-0.920896	2.60853	-0.453779
