19

O	-3.058068	-0.452258	0.29765
C	-2.328169	0.365861	-0.2014
C	-0.829647	0.209992	-0.379606
C	-0.311332	-1.10251	0.214207
O	0.897005	-1.506459	-0.397878
C	2.075136	-0.951219	0.138984
C	2.266667	0.542152	0.034976
C	1.372867	1.531308	0.029529
C	-0.128928	1.477363	0.142263
H	-2.732974	1.33546	-0.576893
H	-0.656118	0.157304	-1.465956
H	-0.194898	-1.018901	1.30641
H	-1.03977	-1.894268	0.023651
H	2.179742	-1.240888	1.202522
H	2.892104	-1.447771	-0.395883
H	3.317514	0.828689	0.011518
H	1.76887	2.544836	-0.004964
H	-0.395899	1.618193	1.202458
H	-0.549628	2.349398	-0.374752
