19

C	0.207111	2.046816	0.305303
C	0.138459	0.669813	-0.320913
O	-1.07137	0.474635	-1.038844
C	-1.94787	-0.293248	-0.159788
C	-1.131595	-0.810611	1.094414
C	0.227105	-0.606007	0.493476
C	0.794514	-1.387957	-0.730609
C	1.513957	-0.047651	-0.619155
O	1.620727	-0.267258	0.875439
H	0.199428	2.804487	-0.48516
H	-0.662242	2.235841	0.94478
H	1.113096	2.160873	0.901853
H	-2.787429	0.338113	0.14872
H	-2.341654	-1.132863	-0.740633
H	-1.293948	-0.170073	1.965491
H	-1.395075	-1.838632	1.350902
H	1.400543	-2.254704	-0.467011
H	0.140994	-1.5488	-1.587401
H	2.421348	0.319822	-1.100661
