19

C	-2.210476	-0.661565	-0.409593
C	-0.786185	-0.399988	0.035794
C	-0.193607	-1.304375	1.112737
C	0.314434	-1.392449	-0.296396
C	1.662023	-0.812855	-0.662606
C	1.949134	0.449306	0.14161
O	0.889883	1.413116	0.08071
C	-0.421708	1.055587	0.045599
O	-1.248553	1.928262	-0.011525
H	-2.384177	-0.277372	-1.419094
H	-2.418747	-1.73587	-0.409154
H	-2.922014	-0.166747	0.255807
H	0.430031	-0.870742	1.885252
H	-0.846593	-2.092526	1.470536
H	0.003084	-2.257638	-0.874387
H	2.469119	-1.532134	-0.478037
H	1.678197	-0.575467	-1.73314
H	2.149435	0.207621	1.192089
H	2.829332	0.967887	-0.246213
