19

C	2.65035	0.184885	-0.387248
C	1.201084	0.013299	-0.071638
O	0.494546	-1.005107	-0.791098
C	-0.367147	-1.233005	0.362016
C	-1.798412	-0.813058	0.048426
O	-1.833304	0.405047	-0.665418
C	-1.088627	1.472222	-0.104096
C	0.269515	1.08577	0.45493
C	0.421483	-0.220811	1.20232
H	3.184741	-0.764671	-0.284046
H	2.77858	0.536464	-1.417192
H	3.10731	0.920236	0.281119
H	-0.307658	-2.271458	0.702161
H	-2.287172	-1.544575	-0.602475
H	-2.36841	-0.758049	0.993277
H	-0.989131	2.209222	-0.908331
H	-1.662942	1.947799	0.711581
H	0.798613	1.918944	0.912896
H	0.726653	-0.329254	2.234884
