19

C	2.76444	-0.642458	-0.537658
C	1.89494	0.430761	0.06203
O	1.160882	0.082549	1.249973
C	0.429973	0.373007	0.068787
C	-0.59624	1.515032	-0.054169
C	-1.570324	0.505462	-0.711898
O	-2.421637	-0.147289	0.248291
C	-1.518416	-1.275023	0.36028
C	-0.508346	-0.633063	-0.606942
H	3.672987	-0.777037	0.058435
H	2.237721	-1.599437	-0.574964
H	3.067974	-0.368149	-1.55402
H	2.348035	1.423682	0.110169
H	-0.959279	1.925984	0.890374
H	-0.272986	2.32929	-0.710077
H	-2.100822	0.797849	-1.620684
H	-1.166715	-1.435167	1.38532
H	-1.985738	-2.193271	-0.015442
H	-0.131302	-1.228128	-1.437818
