19

O	3.14228	4e-06	0.135327
C	1.965487	-1e-06	0.388933
C	0.855332	3e-06	-0.649219
C	0.015064	-1.308574	-0.469672
C	-1.306856	-1.010315	0.235461
C	-2.153892	1.6e-05	-0.559139
C	-1.306845	1.010311	0.235489
C	0.015065	1.308578	-0.469657
O	-1.068046	-2e-05	1.262619
H	1.59163	-5.3e-05	1.437123
H	1.347761	1.1e-05	-1.623897
H	-0.179012	-1.77633	-1.440777
H	0.588758	-2.037152	0.115205
H	-1.789086	-1.903165	0.641067
H	-2.074029	3.1e-05	-1.648896
H	-3.200706	2.8e-05	-0.252157
H	-1.789065	1.903157	0.641116
H	-0.179013	1.776348	-1.440756
H	0.58876	2.037146	0.115229
