19

C	2.285113	1.13474	-0.149813
C	1.320228	-0.036869	-0.049569
O	2.013311	-1.271248	-0.10129
C	0.244623	-0.0422	1.048759
C	-0.675831	0.952603	0.258207
C	-1.888794	0.015238	0.423719
O	-2.952945	0.06628	-0.491088
C	-0.71189	-0.952497	0.199074
C	-0.017677	0.021226	-0.828514
H	1.772459	2.097008	-0.072152
H	3.036794	1.075229	0.643584
H	2.811997	1.119327	-1.112861
H	2.623987	-1.243367	-0.845203
H	0.372731	-0.079731	2.131486
H	-0.634022	2.041803	0.292828
H	-2.34709	-0.004782	1.417528
H	-2.585624	0.061081	-1.381775
H	-0.69632	-2.04011	0.164165
H	-0.172467	0.059843	-1.909751
