19

C	1.906325	-0.507172	1.215671
C	1.676204	0.113652	-0.150689
O	2.585155	0.300049	-0.927647
C	0.240642	0.474357	-0.537359
C	-0.581528	1.270112	0.514186
C	-2.063071	0.905969	0.250581
C	-1.99596	-0.487854	-0.337344
O	-1.132804	-1.382036	0.384861
C	-0.62947	-0.753174	-0.802482
H	2.867583	-1.022962	1.219742
H	1.938685	0.284282	1.974223
H	1.093246	-1.184835	1.489046
H	0.315262	1.031125	-1.47807
H	-0.306281	0.952164	1.520967
H	-0.394006	2.343785	0.446032
H	-2.673216	0.957813	1.157331
H	-2.516045	1.576228	-0.490005
H	-2.868802	-0.953371	-0.78763
H	-0.394097	-1.423672	-1.624726
