19

O	-2.972297	0.820903	0.234202
C	-2.331108	-0.420306	-0.008408
C	-0.849152	-0.410231	0.29854
C	0.101966	-1.154404	-0.582483
C	1.439698	-1.577614	0.027876
C	2.030409	-0.297942	0.655682
C	1.333932	0.873323	-0.062505
O	1.774152	1.99103	-0.167116
C	0.05866	0.365035	-0.653465
H	-2.848767	1.045789	1.161925
H	-2.81319	-1.236032	0.554135
H	-2.486794	-0.626289	-1.072769
H	-0.611828	-0.358268	1.36043
H	-0.307667	-1.748178	-1.392691
H	1.324994	-2.393247	0.74903
H	2.097328	-1.940941	-0.768658
H	1.816728	-0.224483	1.728736
H	3.112543	-0.208857	0.545574
H	-0.404618	0.927881	-1.453833
