19

C	3.18388	0.118292	0.434774
C	1.750083	0.611778	0.266773
C	0.824893	-0.424767	-0.334914
O	1.204913	-1.516253	-0.690859
C	-0.682856	-0.092998	-0.46436
C	-1.458004	-1.012924	0.52931
O	-2.856027	-0.897016	0.413662
C	-1.03283	1.309598	-0.293926
C	-1.328063	2.465475	-0.146096
H	3.813382	0.904121	0.860908
H	3.224441	-0.753123	1.093623
H	3.607806	-0.182956	-0.526426
H	1.313489	0.938499	1.220599
H	1.698386	1.505476	-0.369021
H	-0.958302	-0.41937	-1.476425
H	-1.105456	-2.039293	0.366861
H	-1.215493	-0.721459	1.555894
H	-3.119779	-1.258719	-0.438776
H	-1.592172	3.486238	-0.019031
