19

O	1.008421	-1.02043	1.108885
C	0.500634	-0.177651	0.100688
C	-0.313389	-0.991148	-0.948592
C	-1.737517	-1.084443	-0.354973
C	-1.909726	0.197593	0.445171
C	-1.500697	1.487342	-0.21558
C	-0.534156	0.77433	0.705402
C	1.645851	0.573387	-0.545852
O	2.79467	0.415067	-0.206462
H	1.970796	-0.893784	1.090324
H	-0.327214	-0.474657	-1.914557
H	0.155706	-1.964513	-1.100861
H	-2.496576	-1.215274	-1.133264
H	-1.803897	-1.942816	0.321356
H	-2.672344	0.232252	1.214663
H	-1.319964	1.50631	-1.285369
H	-1.938927	2.402722	0.166347
H	-0.26761	1.228995	1.651917
H	1.369305	1.28722	-1.347529
