19

C	2.694217	-1.209032	0.258385
C	2.156605	-0.004183	-0.526806
C	0.740906	0.319418	-0.172295
O	0.476832	0.974667	1.086084
C	-0.045825	1.551494	-0.127751
C	-1.34025	0.795152	-0.539527
C	-1.645793	-0.35244	0.404441
O	-2.762634	-1.12952	0.077744
C	-0.529432	-0.50137	-0.583218
H	3.726862	-1.430618	-0.025859
H	2.670002	-1.009812	1.333637
H	2.093231	-2.104443	0.069332
H	2.771899	0.88081	-0.330456
H	2.212446	-0.203161	-1.604542
H	0.210824	2.584431	-0.335116
H	-2.06477	1.14888	-1.2605
H	-1.431414	-0.257658	1.464506
H	-3.53938	-0.692268	0.44189
H	-0.545846	-1.271572	-1.342895
