19

C	-1.787604	0.87773	0.317268
O	-1.998217	-0.119806	-0.672455
C	-1.322886	-1.285982	-0.214993
C	-0.085327	-0.803124	0.586421
C	1.233133	-0.961985	-0.139956
O	2.299954	-0.233074	0.48208
C	1.670679	0.330994	-0.677724
C	0.6424	1.39188	-0.355182
C	-0.308056	0.743222	0.691059
H	-2.050404	1.84484	-0.120431
H	-2.434104	0.70366	1.193865
H	-1.986162	-1.884518	0.427665
H	-1.067711	-1.887302	-1.093556
H	-0.046196	-1.282242	1.568255
H	1.51406	-1.916294	-0.580637
H	2.307956	0.41983	-1.554337
H	1.101286	2.312558	0.018011
H	0.093241	1.639785	-1.271437
H	-0.099902	1.116317	1.694249
