19

C	-1.976775	1.402501	-0.500599
C	-0.728609	0.856977	0.188946
C	0.466267	1.838879	0.223108
C	1.687653	0.958123	0.51933
C	1.374971	-0.374748	-0.157799
O	2.150068	-1.255222	-0.422932
C	-0.143743	-0.406933	-0.458544
C	-0.756717	-1.725367	-0.032341
O	-1.716822	-1.819201	0.688904
H	-2.327384	2.316271	-0.009658
H	-1.773526	1.645827	-1.55049
H	-2.788854	0.670888	-0.469257
H	-0.99301	0.593952	1.221046
H	0.579169	2.315951	-0.758753
H	0.323706	2.637169	0.955857
H	2.649729	1.350579	0.182767
H	1.778086	0.759039	1.596149
H	-0.218422	-0.371412	-1.55778
H	-0.233755	-2.619465	-0.430271
