19

C	2.593168	0.301394	-0.5839
C	1.197451	0.094762	-0.094715
O	1.005673	-0.308265	1.266225
C	0.309853	0.855585	0.815692
C	-0.970247	0.400809	0.059421
C	-1.920585	1.482535	-0.394958
C	-1.504283	-0.998494	0.462318
O	-0.611244	-1.65983	-0.471894
C	-0.052981	-0.408642	-0.89123
H	3.178133	0.859726	0.152114
H	3.087612	-0.661458	-0.754902
H	2.597323	0.85449	-1.52876
H	0.469905	1.776823	1.368018
H	-1.380664	2.315909	-0.858863
H	-2.638198	1.099135	-1.127297
H	-2.488236	1.889093	0.450659
H	-1.322395	-1.311769	1.49402
H	-2.553195	-1.171606	0.191469
H	-0.019968	-0.273269	-1.976885
