19

O	-1.667407	-1.808882	-0.213499
C	-0.527788	-1.13757	-0.71298
C	-0.166769	0.09989	0.133175
C	0.379108	-0.298264	1.545932
C	1.8267	-0.180856	0.997834
C	1.284778	0.638456	-0.187072
O	1.863618	0.322962	-1.427228
C	-1.252611	1.06166	0.08639
C	-2.165003	1.846169	0.028662
H	-2.387332	-1.167067	-0.191078
H	0.293242	-1.858085	-0.684269
H	-0.661108	-0.831991	-1.760537
H	0.151391	0.459283	2.297902
H	0.045911	-1.272	1.907327
H	2.575897	0.298092	1.630222
H	2.220584	-1.139083	0.650609
H	1.32839	1.715874	0.016807
H	1.551364	0.954329	-2.083442
H	-2.958522	2.551101	-0.009369
