19

O	2.214144	0.788432	-0.288658
C	1.405906	-0.380619	-0.26962
C	0.927906	-0.746413	1.168559
C	-0.485183	-0.166751	1.229779
C	-1.557948	-0.714134	0.257158
C	-0.86826	-1.390856	-0.926036
C	0.09231	-0.160133	-1.031445
C	-0.82032	0.583254	-0.019195
O	-1.177624	1.911914	-0.181169
H	1.643665	1.541644	-0.095222
H	2.022999	-1.168809	-0.711612
H	0.943858	-1.827776	1.343217
H	1.598671	-0.285919	1.899062
H	-0.890658	0.19025	2.172197
H	-2.566714	-0.896207	0.60996
H	-0.398123	-2.366237	-0.757196
H	-1.526442	-1.461652	-1.795042
H	0.220377	0.277341	-2.02081
H	-1.506255	2.248506	0.658861
