19

C	-1.959254	-1.121568	-0.491104
C	-0.626808	-0.479204	-0.196993
C	0.534449	-1.316025	0.348975
O	1.371346	-0.884339	1.380583
C	0.672213	-0.684841	-0.98856
C	1.430614	0.643854	-1.05918
C	0.735085	1.592163	-0.062737
C	-0.625468	0.95932	0.238775
O	-1.580847	1.529411	0.709803
H	-2.634558	-0.995588	0.360625
H	-2.440189	-0.659561	-1.359757
H	-1.851624	-2.191106	-0.695331
H	0.323499	-2.386106	0.36102
H	0.899168	-0.982857	2.214583
H	0.687134	-1.330447	-1.860474
H	2.492854	0.511234	-0.836788
H	1.35644	1.038654	-2.077095
H	1.285702	1.667224	0.87954
H	0.592595	2.60578	-0.444471
