19

C	-0.215369	1.830807	0.391575
C	-0.789481	0.50691	0.004554
O	-1.976416	0.528798	-0.806631
C	-2.526997	-0.595624	-0.068818
C	-1.248234	-0.740854	0.738924
C	-0.069089	-0.796694	-0.22168
C	1.303292	-1.006279	0.399013
C	2.39402	-0.382771	-0.447745
O	3.150368	0.473518	-0.067471
H	0.031651	2.402094	-0.510534
H	-0.93513	2.4146	0.973307
H	0.702709	1.717213	0.972707
H	-3.392143	-0.279015	0.525212
H	-2.814041	-1.425873	-0.725514
H	-1.166554	-1.025176	1.78
H	-0.218502	-1.278779	-1.18742
H	1.363956	-0.581842	1.405202
H	1.501919	-2.084846	0.476895
H	2.445675	-0.769877	-1.491989
