19

C	-3.250415	-0.533137	0.246084
C	-1.976412	0.201242	-0.094829
O	-1.889417	1.363929	-0.390353
O	-0.91759	-0.645952	-0.039945
C	0.343354	-0.082941	-0.355876
C	1.472754	-1.002098	-0.023091
C	2.789688	-0.396989	-0.51959
C	2.511674	0.883807	0.341125
C	1.201981	0.255342	0.825759
H	-3.423453	-1.335214	-0.477289
H	-3.165729	-0.998354	1.232067
H	-4.08606	0.165285	0.231569
H	0.325932	0.537063	-1.248683
H	1.28134	-2.043244	0.205945
H	3.666685	-0.94512	-0.16985
H	2.875575	-0.256697	-1.602267
H	3.245923	1.011948	1.138892
H	2.414133	1.831083	-0.199121
H	0.765974	0.33808	1.813629
