19

O	1.601117	-1.423683	0.348481
C	0.473322	-0.636944	0.149428
C	-0.475444	-1.117221	-0.993844
C	-1.80196	-0.351754	-0.719646
C	-1.453233	0.5171	0.515074
C	-0.463599	1.622569	0.07321
C	0.811551	0.8152	-0.166768
O	1.911821	1.196086	-0.485136
C	-0.528567	-0.431735	1.314392
H	2.355376	-0.875002	0.082216
H	-0.053014	-0.920821	-1.982979
H	-0.589228	-2.200045	-0.895881
H	-2.126079	0.254597	-1.570179
H	-2.61663	-1.04261	-0.48554
H	-2.322344	0.898973	1.051221
H	-0.766502	2.184314	-0.815513
H	-0.274759	2.349711	0.871547
H	-0.068625	0.032362	2.192178
H	-1.014123	-1.363987	1.615099
