19

C	-0.384165	-1.10463	-1.230526
C	-0.386904	-0.193472	0.014737
C	-0.363767	-1.054275	1.295521
C	-1.635264	0.717995	0.015373
O	-2.847927	-0.020912	0.059445
C	0.856704	0.698866	-0.012703
O	0.805166	1.910935	-0.024855
C	2.146543	0.018205	-0.015902
C	3.218172	-0.530833	-0.018022
H	-1.244945	-1.779652	-1.19654
H	-0.437314	-0.519486	-2.155453
H	0.518286	-1.719745	-1.270978
H	-1.301364	-1.611546	1.362113
H	0.470784	-1.76007	1.288964
H	-0.27768	-0.429488	2.190561
H	-1.626963	1.34721	0.909256
H	-1.604291	1.391096	-0.8506
H	-3.033247	-0.346949	-0.825652
H	4.17092	-1.002681	-0.019247
