19

C	0.461496	2.320453	0.020808
C	0.199463	0.822132	-0.052005
C	-1.265933	0.521642	-0.261932
C	-2.075593	-0.339728	0.616182
O	-1.700106	-0.764732	-0.697404
C	1.353937	0.051893	-0.687924
C	1.140597	-1.459282	-0.603917
O	0.831487	-1.375173	0.818932
C	1.130779	0.019278	0.811162
H	-0.146463	2.787858	0.803272
H	1.511985	2.528667	0.245087
H	0.2208	2.809635	-0.929728
H	-1.789356	1.335027	-0.770488
H	-1.583891	-0.878477	1.421283
H	-3.135719	-0.128942	0.750657
H	2.116136	0.546756	-1.276439
H	0.327881	-1.903867	-1.177396
H	2.073483	-2.016583	-0.746507
H	1.685618	0.420837	1.653795
