19

C	3.073803	1.502506	0.000338
C	1.641933	0.97578	0.000132
C	1.562508	-0.536433	-0.000214
O	2.533621	-1.256764	-0.000768
C	0.172192	-1.1771	0.000283
O	-0.841443	-0.200044	-0.000301
C	-2.141133	-0.76347	0.000673
C	-3.141584	0.294554	-1.8e-05
C	-3.987308	1.146643	-0.000536
H	3.620339	1.15221	-0.87915
H	3.081437	2.595883	0.000178
H	3.620006	1.152511	0.880161
H	1.069192	1.336613	0.864501
H	1.069448	1.336829	-0.864338
H	0.10448	-1.832219	-0.884133
H	0.104608	-1.830938	0.885678
H	-2.279357	-1.408831	-0.883356
H	-2.278756	-1.407127	0.88604
H	-4.731281	1.90465	-0.000978
