19

C	3.492267	-0.551476	-0.634062
C	2.234306	-0.250312	0.14392
O	1.913392	-0.764236	1.185507
O	1.500996	0.693266	-0.490351
C	0.269	1.080212	0.144735
C	-0.876318	0.156039	-0.255847
C	-2.212665	0.620206	0.35785
C	-3.332421	-0.231452	-0.022757
C	-4.239922	-0.947792	-0.350638
H	4.073359	-1.30643	-0.106182
H	3.235884	-0.909371	-1.635223
H	4.084486	0.359601	-0.757198
H	0.409872	1.077938	1.228926
H	0.087466	2.103784	-0.195329
H	-0.96192	0.13123	-1.346961
H	-0.654473	-0.86021	0.08117
H	-2.125851	0.640488	1.452186
H	-2.421023	1.653899	0.050282
H	-5.048386	-1.575707	-0.632127
