19

C	-1.646398	-0.18757	1.47923
C	-0.962212	0.314073	0.241066
C	-0.842783	1.792392	-0.153728
C	0.61622	1.563449	-0.662619
C	0.526402	0.094306	-0.263731
C	1.587674	-0.687373	0.364979
O	2.703281	-0.262636	0.583072
C	-0.693396	-0.540582	-0.939986
O	-0.919465	-1.900357	-0.731586
H	-2.720224	0.030886	1.423222
H	-1.53171	-1.26732	1.588792
H	-1.255394	0.303363	2.376134
H	-1.574279	2.141298	-0.890377
H	-0.88186	2.453746	0.714584
H	0.793562	1.752516	-1.726342
H	1.367688	2.099551	-0.081867
H	1.302151	-1.722418	0.651801
H	-0.944218	-0.181133	-1.942512
H	-0.339291	-2.398709	-1.316593
