19

C	-2.080981	1.335758	0.164638
C	-1.932109	-0.159715	-0.035712
O	-2.840939	-0.93644	0.06678
O	-0.699685	-0.635151	-0.361868
C	0.42847	0.218323	-0.475501
C	1.762689	-0.515271	-0.739933
C	2.454545	0.780333	-0.222468
C	1.300932	0.504936	0.783661
C	1.724352	-0.995879	0.74348
H	-1.915238	1.871706	-0.775604
H	-3.095882	1.529549	0.508559
H	-1.362356	1.720339	0.893114
H	0.20893	1.069895	-1.125702
H	2.017556	-1.097198	-1.625264
H	3.465338	0.654647	0.169095
H	2.373575	1.675182	-0.846567
H	1.032065	1.099882	1.657604
H	2.690417	-1.230935	1.19623
H	0.963206	-1.73126	1.00025
