19

C	-1.796163	1.780546	-0.253022
C	-0.760083	0.734186	-0.010557
O	-0.800072	1.3e-05	1.232913
C	-0.760176	-0.73415	-0.010538
C	-1.796375	-1.780388	-0.253036
C	0.719232	-0.768927	-0.508406
C	1.649447	1.9e-05	0.396956
O	3.015025	2.8e-05	0.104375
C	0.719235	0.768647	-0.50867
H	-1.575618	2.684069	0.32717
H	-1.824249	2.059872	-1.311504
H	-2.784465	1.418939	0.042451
H	-1.824281	-2.059895	-1.311473
H	-1.576083	-2.683841	0.327362
H	-2.78469	-1.418591	0.042164
H	1.085973	-1.443552	-1.273044
H	1.497467	0.000214	1.467656
H	3.129656	-0.000141	-0.8519
H	1.085962	1.443005	-1.27355
