19

C	-2.4688	0.188116	-0.773733
C	-1.162218	0.026146	0.022498
C	-1.477752	-0.330007	1.491831
C	-0.310301	-1.065586	-0.638148
O	1.025742	-1.138257	-0.122254
C	1.745675	0.014852	-0.044597
O	2.935049	-0.035372	0.132632
C	0.978819	1.280544	-0.10752
C	-0.353135	1.300648	-0.026807
H	-3.034209	-0.749716	-0.787442
H	-3.10534	0.953702	-0.318643
H	-2.274026	0.483124	-1.809761
H	-2.126445	-1.211568	1.539549
H	-0.561659	-0.546205	2.047202
H	-1.993522	0.495387	1.992604
H	-0.73723	-2.05788	-0.470241
H	-0.260218	-0.890234	-1.720953
H	1.583827	2.179216	-0.126501
H	-0.891233	2.244926	0.030009
