19

C	2.176164	-0.673443	0.828511
C	1.300229	-0.401845	-0.391319
O	0.31341	-1.409827	-0.581165
C	-0.998966	-0.854873	-0.61343
C	-1.763321	-0.784877	0.74426
C	-1.875757	0.760071	0.586314
C	-0.908224	0.683076	-0.632719
C	0.554797	0.938936	-0.297006
O	1.056053	1.989641	0.008502
H	1.571851	-0.7285	1.738802
H	2.709528	-1.61975	0.710237
H	2.902493	0.136128	0.94084
H	1.938656	-0.359836	-1.288557
H	-1.553211	-1.338488	-1.421355
H	-2.705604	-1.334276	0.793786
H	-1.130314	-1.101331	1.576529
H	-2.874432	1.090499	0.294734
H	-1.536734	1.377753	1.420582
H	-1.187465	1.237027	-1.531968
