19

C	-0.661287	1.477972	-0.689326
C	-1.095287	0.013731	-0.830702
O	-2.003015	-0.694134	0.047432
C	-0.615083	-0.676293	0.370668
C	-0.20799	0.399447	1.376223
C	0.482788	1.324168	0.357735
C	1.71985	0.511088	-0.132162
O	1.491889	-0.829346	-0.595647
C	0.512444	-1.636404	0.092467
H	-0.327069	1.865148	-1.656209
H	-1.444716	2.143863	-0.312191
H	-1.003341	-0.456594	-1.805167
H	-1.085736	0.856045	1.839293
H	0.460209	0.030232	2.159114
H	0.846956	2.278881	0.755996
H	2.210722	1.008475	-0.975285
H	2.435923	0.494266	0.705481
H	0.242031	-2.438653	-0.598792
H	0.94141	-2.076085	1.004063
