19

C	-3.227892	-0.194876	0.081818
C	-1.952778	0.569292	-0.283438
C	-0.679176	-0.036375	0.310426
C	-0.240909	-1.422019	-0.224851
C	1.262179	-1.538189	0.10949
C	1.791199	-0.115898	0.011715
O	2.92516	0.254208	-0.125504
C	0.556366	0.833417	0.111505
O	0.609294	2.030788	0.023448
H	-4.108721	0.287221	-0.352347
H	-3.202434	-1.226512	-0.284541
H	-3.370181	-0.231417	1.167784
H	-1.845115	0.614694	-1.374791
H	-2.022345	1.60815	0.056425
H	-0.8009	-0.118377	1.404336
H	-0.827221	-2.240285	0.197326
H	-0.381729	-1.449632	-1.312259
H	1.404646	-1.875142	1.145639
H	1.824438	-2.220785	-0.531119
