19

C	2.403836	0.376788	0.444438
C	1.267211	-0.093401	-0.463682
C	0.816667	-1.574371	-0.241948
C	-0.661866	-1.385781	0.100105
C	-1.245026	-0.242649	-0.767455
O	-2.113809	0.217511	0.334025
C	-0.82678	-0.118997	0.975463
C	-0.057818	0.602465	-0.190706
O	-0.066843	1.97681	-0.287572
H	2.597325	1.443858	0.303471
H	2.157095	0.218045	1.500684
H	3.327204	-0.171405	0.232002
H	1.555503	0.072634	-1.508092
H	0.957021	-2.194303	-1.132375
H	1.367783	-2.048064	0.577058
H	-1.297271	-2.243312	0.313671
H	-1.66879	-0.26731	-1.772413
H	-0.754793	0.003549	2.056784
H	-0.973197	2.247402	-0.079706
