19

C	4.260555	-0.018443	-0.225875
C	2.849382	-0.229182	0.062388
C	1.682756	-0.395466	0.306624
C	0.266977	-0.597218	0.580875
C	-0.642804	0.268417	-0.333501
O	-0.398025	1.6287	-0.134849
C	-2.125836	-0.034863	-0.087276
C	-2.631397	-1.442627	-0.300902
O	-2.853521	0.868144	0.269034
H	4.697477	-0.879258	-0.74423
H	4.406494	0.861191	-0.862496
H	4.834765	0.140804	0.693563
H	0.012828	-1.656804	0.450267
H	0.040597	-0.337484	1.623017
H	-0.424005	-0.009586	-1.378532
H	-1.25147	1.999693	0.144957
H	-2.166806	-1.909279	-1.174368
H	-2.378655	-2.058569	0.570317
H	-3.71666	-1.429157	-0.409973
