19

O	-2.517963	-0.126473	-0.348605
C	-1.448368	0.219005	0.081101
O	-0.699345	-0.579753	0.916585
C	-0.085356	-1.712231	0.284092
C	0.917604	-1.26035	-0.778331
C	2.022664	-0.315011	-0.273883
C	1.574521	0.931842	0.539083
C	0.499737	1.785211	-0.093065
C	-0.804745	1.506767	-0.24223
H	0.404151	-2.260028	1.094388
H	-0.857524	-2.355422	-0.154719
H	1.383707	-2.151996	-1.214791
H	0.366961	-0.78078	-1.596127
H	2.718674	-0.875988	0.362231
H	2.604164	0.015881	-1.142526
H	1.232058	0.606254	1.522916
H	2.461167	1.55474	0.696414
H	0.83061	2.748196	-0.479108
H	-1.461837	2.217554	-0.733118
