19

O	3.256797	-0.165216	0.516672
C	2.314863	-0.142245	-0.232181
C	0.866182	-0.036605	0.189996
C	0.254391	1.284099	-0.319364
O	-1.06404	1.447456	0.167022
C	-1.958471	0.436318	-0.208559
C	-2.247171	-0.632956	0.811358
C	-1.439565	-0.962591	-0.425739
C	0.057695	-1.221129	-0.387253
H	2.462644	-0.195666	-1.338199
H	0.839954	-0.028354	1.283674
H	0.816416	2.144106	0.054595
H	0.277759	1.309213	-1.421421
H	-2.767096	0.805484	-0.835302
H	-1.722991	-0.53522	1.755944
H	-3.252477	-1.03229	0.887676
H	-1.964075	-1.543886	-1.178404
H	0.283041	-2.136881	0.17058
H	0.397223	-1.393775	-1.418238
