19

C	2.883053	1.544092	0.046411
C	1.387067	1.297827	-0.159594
C	0.91119	-0.074436	0.399059
C	1.53516	-1.198546	-0.433522
O	2.434423	-1.901441	-0.05977
C	-0.541094	-0.198608	0.354709
C	-1.735861	-0.334598	0.266396
C	-3.193551	-0.437963	0.192138
O	-3.809133	0.66185	-0.462805
H	3.138698	1.549558	1.111156
H	3.492621	0.772504	-0.43323
H	3.172957	2.511534	-0.3735
H	0.800467	2.07839	0.33507
H	1.129421	1.349449	-1.224411
H	1.280212	-0.191733	1.424811
H	1.090225	-1.29915	-1.448914
H	-3.476911	-1.324316	-0.386176
H	-3.598363	-0.580536	1.206856
H	-3.507433	1.464426	-0.024637
