19

C	1.274698	-0.853202	1.350409
C	0.7981	-0.394842	-0.034993
O	1.920466	-0.267836	-0.896619
C	-0.260095	-1.309109	-0.694034
C	-1.600163	-0.572521	-0.614375
C	-2.077251	-0.146377	0.730245
C	-1.354153	0.865634	-0.156936
C	0.109729	0.998205	0.025158
O	0.754638	2.020973	0.074303
H	1.920603	-0.088438	1.792745
H	0.450497	-1.047712	2.04323
H	1.854895	-1.773644	1.237684
H	2.27496	0.618243	-0.729722
H	0.029025	-1.44391	-1.739142
H	-0.309248	-2.298847	-0.229116
H	-2.337365	-0.766991	-1.384624
H	-3.137815	0.041261	0.855709
H	-1.586756	-0.513487	1.624032
H	-1.904821	1.721703	-0.525104
