19

C	2.448468	-0.983134	-0.110269
C	1.016674	-0.635288	-0.496142
C	0.627274	0.885627	-0.371052
O	1.580414	1.715374	0.259998
C	-0.479156	0.516285	0.651342
C	-0.068759	-1.000497	0.560995
C	-1.465046	-1.362926	-0.017015
C	-1.816845	0.138931	-0.003952
O	-2.770077	0.77068	-0.356003
H	3.166643	-0.608304	-0.84856
H	2.710401	-0.551345	0.859146
H	2.574604	-2.069222	-0.05058
H	0.791565	-1.041759	-1.488726
H	0.263547	1.349582	-1.297824
H	2.279999	1.906629	-0.373642
H	-0.503606	1.126579	1.554382
H	0.267304	-1.571088	1.426178
H	-1.509637	-1.872023	-0.984636
H	-2.099175	-1.911481	0.688849
