19

O	-4.043745	-0.642886	-0.100262
C	-2.913467	0.207855	0.007983
C	-1.599297	-0.575494	-0.010875
C	-0.363914	0.311981	0.003973
O	-0.44648	1.5206	0.017559
C	0.982631	-0.399059	-0.00186
C	2.17121	0.575594	-0.002721
C	3.453677	-0.116206	-0.001912
C	4.498496	-0.710535	-0.001064
H	-4.115783	-1.148766	0.715095
H	-2.952825	0.879393	-0.853302
H	-2.960531	0.841115	0.904273
H	-1.542964	-1.261529	0.847107
H	-1.564484	-1.220072	-0.899056
H	1.031807	-1.065467	0.868742
H	1.026615	-1.062718	-0.874604
H	2.096923	1.234231	-0.875088
H	2.096444	1.236105	0.868131
H	5.430581	-1.218817	-0.000818
