19

C	2.675415	-1.344194	0.135973
C	1.573927	-0.315102	0.460914
C	0.224531	-0.799205	-0.080704
O	-0.788706	0.101364	0.386617
C	-2.035032	-0.120062	-0.086332
C	-2.999404	0.905633	0.457492
O	-2.310395	-1.019193	-0.839304
C	1.915553	1.007632	-0.060167
C	2.218185	2.080553	-0.509121
H	2.784919	-1.467447	-0.945492
H	3.636268	-1.01416	0.53663
H	2.432185	-2.317362	0.573471
H	1.477041	-0.24131	1.552278
H	0.220371	-0.823379	-1.174164
H	0.007824	-1.809543	0.281827
H	-2.692528	1.907477	0.143703
H	-4.002137	0.691446	0.090078
H	-2.988556	0.890819	1.550847
H	2.478363	3.034555	-0.896021
