19

C	1.87014	1.234307	0.005567
C	0.430835	0.746412	0.002919
O	-0.348265	1.906802	0.007302
C	-0.028874	-0.397812	1.033738
C	0.928999	-1.514265	0.672727
C	0.928781	-1.512867	-0.670925
C	-0.030702	-0.393397	-1.030703
C	-1.164781	-0.74446	-0.010044
O	-2.291676	0.117256	-0.089412
H	2.030937	1.864897	0.885486
H	2.594683	0.421897	0.011579
H	2.037577	1.858343	-0.877736
H	-1.277996	1.63582	-0.028409
H	-0.242488	-0.179075	2.081057
H	1.487402	-2.133076	1.361064
H	1.48919	-2.125727	-1.362617
H	-0.247734	-0.174023	-2.076038
H	-1.485632	-1.791953	-0.011008
H	-2.872803	-0.07707	0.653834
