19

C	-2.369554	1.248911	-0.000171
C	-1.752061	-0.129439	-9.7e-05
O	-2.388382	-1.158648	7.2e-05
C	-0.248861	-0.18301	1.7e-05
C	0.702025	-0.744756	-1.089955
C	1.543719	-0.027715	5.3e-05
C	2.989996	0.352816	-0.000238
C	0.701766	-0.741743	1.091837
O	0.532488	1.074419	-0.001598
H	-2.024739	1.809612	-0.875821
H	-3.457141	1.171059	0.001101
H	-2.022588	1.810939	0.87375
H	0.784122	-1.829616	-1.181168
H	0.651934	-0.23111	-2.051069
H	3.231218	0.942421	-0.889737
H	3.23039	0.946451	0.886802
H	3.616536	-0.544516	0.002091
H	0.783822	-1.826353	1.186059
H	0.651417	-0.225442	2.051515
