19

O	1.088015	-0.836589	1.430837
C	1.34526	-0.740666	0.03801
C	0.299423	-1.41615	-0.840894
C	-1.027137	-1.30907	-0.771066
C	-1.828775	-0.471924	0.188627
O	-1.131585	0.622092	0.768884
C	-0.744948	1.657836	-0.132645
C	0.718291	1.684403	-0.484139
C	1.60671	0.692808	-0.417207
H	0.3468	-0.236732	1.600251
H	2.276343	-1.298735	-0.103786
H	0.709595	-2.0513	-1.623121
H	-1.632411	-1.886355	-1.467593
H	-2.734579	-0.10463	-0.318902
H	-2.16688	-1.075901	1.040192
H	-1.351779	1.598786	-1.049696
H	-1.004984	2.606829	0.354418
H	1.060547	2.663031	-0.81748
H	2.632956	0.917562	-0.696162
