19

C	-2.83354	-0.508454	0.31195
C	-1.399648	-0.203775	-0.018517
C	-0.53183	-1.123049	-0.446921
C	0.906972	-0.807752	-0.697176
O	1.770439	-1.195989	0.419841
C	1.880251	0.170236	0.869837
C	1.253292	0.676844	-0.452285
O	0.215114	1.61375	-0.465911
C	-0.977518	1.229197	0.195977
H	-3.072546	-0.217846	1.343135
H	-3.518272	0.052282	-0.336931
H	-3.050381	-1.573743	0.202002
H	-0.849065	-2.154585	-0.582732
H	1.271339	-1.259	-1.626712
H	1.274185	0.36483	1.764993
H	2.917924	0.457195	1.070349
H	2.004641	1.059835	-1.145018
H	-0.898105	1.42044	1.281195
H	-1.752021	1.909018	-0.178911
