19

O	-2.060499	-1.458849	-0.113565
C	-1.556864	-0.266116	0.437148
C	-1.93111	1.100698	-0.206027
C	-0.45741	1.571705	-0.019053
C	-0.077391	0.109339	0.235359
C	1.108604	-0.538553	0.901008
C	2.383601	0.162494	0.437349
O	2.012488	0.007726	-0.962543
C	0.852465	-0.733498	-0.578361
H	-1.939565	-1.415285	-1.068305
H	-1.822489	-0.302475	1.499025
H	-2.186122	0.97524	-1.263506
H	-2.719952	1.681003	0.276634
H	0.025584	2.050313	-0.87293
H	-0.32658	2.205966	0.862838
H	1.020823	-1.230959	1.728376
H	2.52114	1.213409	0.718008
H	3.298149	-0.401522	0.650922
H	0.581735	-1.603115	-1.166739
