19

C	1.58665	1.703225	0.039043
C	0.372265	0.893847	0.457589
O	-0.799163	1.436892	-0.170749
C	-1.685289	0.394842	-0.482538
C	-2.107199	-0.541729	0.614492
C	-0.997264	-0.936417	-0.352847
C	0.402967	-0.589433	0.050335
C	1.416883	-1.536366	0.51521
O	1.444207	-1.031379	-0.82704
H	1.435519	2.754285	0.298128
H	2.483516	1.347078	0.554797
H	1.749906	1.618467	-1.03677
H	0.246745	0.95494	1.549883
H	-2.358074	0.655529	-1.290383
H	-1.856897	-0.303579	1.64274
H	-3.054488	-1.055373	0.491578
H	-1.13522	-1.756388	-1.046017
H	2.229413	-1.195324	1.157037
H	1.165149	-2.591556	0.613626
