19

C	-2.496341	0.159706	-0.240847
C	-1.060595	0.369639	0.172368
C	-0.4737	-0.410425	1.351861
C	0.029409	-0.670047	-0.033338
O	-0.21006	-1.947582	-0.546834
C	1.306141	0.056821	-0.466746
O	2.442212	-0.190497	0.352542
C	0.918142	1.517069	-0.389366
C	-0.366836	1.676361	-0.069349
H	-2.663286	0.473425	-1.27791
H	-2.76691	-0.897239	-0.161398
H	-3.184207	0.731883	0.391748
H	0.170387	0.103111	2.056702
H	-1.098837	-1.195232	1.766065
H	-0.337607	-1.868456	-1.499307
H	1.538705	-0.229647	-1.510528
H	2.580355	-1.144038	0.365691
H	1.639985	2.305633	-0.562946
H	-0.873118	2.630455	0.038714
