19

C	-2.649849	-0.078251	0.212758
O	-1.5	-0.882815	0.344811
C	-0.425259	-0.535635	-0.503718
C	0.611364	-1.642234	-0.436461
C	1.822319	-1.187273	-0.119222
C	1.767929	0.289161	0.114982
O	0.910442	0.655516	1.220953
C	0.38163	0.728667	-0.108299
C	0.000683	2.095983	-0.610899
H	-2.967059	0.009813	-0.838665
H	-3.446557	-0.565307	0.780752
H	-2.504279	0.932535	0.617967
H	-0.801819	-0.408876	-1.535917
H	0.327618	-2.677629	-0.582306
H	2.720215	-1.781394	-0.001818
H	2.62703	0.936202	-0.039254
H	-0.13089	2.087213	-1.698169
H	-0.937275	2.439087	-0.163013
H	0.776574	2.824224	-0.360534
