19

C	-0.538158	2.0246	0.763816
C	-0.228186	0.735877	0.015607
O	-1.437711	0.308589	-0.632704
C	-1.378465	-1.091703	-0.66945
O	-0.772465	-1.506717	0.537542
C	0.164319	-0.496896	0.903492
C	1.622656	-0.859414	0.534978
C	1.911455	-0.011563	-0.679773
C	0.930606	0.846373	-0.95141
H	-0.823419	2.813912	0.06184
H	-1.3678	1.867188	1.458811
H	0.337824	2.365461	1.323602
H	-2.39565	-1.491626	-0.716151
H	-0.792725	-1.442445	-1.537246
H	0.039972	-0.311515	1.973682
H	2.313533	-0.629248	1.356595
H	1.712047	-1.934077	0.343151
H	2.836769	-0.097812	-1.240245
H	0.915497	1.561539	-1.766303
