19

C	-1.700409	-1.498903	-0.076713
C	-0.840122	-0.26049	-0.032068
C	-1.376933	1.191226	0.073559
C	0.097837	1.477468	0.415288
O	0.757366	1.201837	-0.839978
C	0.340357	-0.15625	-1.03912
O	1.334354	-1.023232	-0.552516
C	1.428657	-0.716496	0.854488
C	0.159231	0.08799	1.131167
H	-2.333331	-1.506663	-0.97165
H	-1.081064	-2.401239	-0.098102
H	-2.359236	-1.55799	0.795701
H	-1.775069	1.674238	-0.822212
H	-2.058453	1.314905	0.919499
H	0.46977	2.408529	0.839886
H	0.176521	-0.366081	-2.095828
H	1.473229	-1.654973	1.41709
H	2.342768	-0.14391	1.051982
H	-0.240603	0.057072	2.143981
