19

C	-1.598792	1.779991	-0.155893
C	-1.326363	0.289801	-0.085893
C	-1.912471	-0.520099	1.041241
C	-2.45895	-0.675207	-0.357859
C	0.028648	-0.094282	-0.605355
O	0.531374	-1.383788	-0.303536
C	1.194565	-0.260896	0.299644
C	2.563461	0.017464	-0.219475
O	3.413416	0.601128	0.402872
H	-1.509246	2.154289	-1.182534
H	-2.611451	2.004143	0.191142
H	-0.896978	2.344609	0.468278
H	-1.322702	-1.341662	1.431071
H	-2.512808	0.003556	1.777067
H	-2.227184	-1.596383	-0.881126
H	-3.433509	-0.256998	-0.58609
H	0.236734	0.229803	-1.62852
H	1.047402	-0.138906	1.370508
H	2.730835	-0.361805	-1.252951
