19

C	-2.331298	1.472015	0.342119
C	-1.599481	0.245749	-0.093209
C	-2.183685	-1.101369	-0.389535
C	-1.043105	-0.980321	0.604338
C	0.239658	-0.683351	-0.162852
C	1.412638	-0.197041	0.68419
C	2.509064	0.420846	-0.159179
O	3.675249	0.129227	-0.078393
O	-0.396666	0.427646	-0.862933
H	-3.179442	1.205321	0.979026
H	-1.674845	2.149671	0.896678
H	-2.719914	2.01254	-0.528435
H	-3.151915	-1.303099	0.058479
H	-2.020664	-1.560039	-1.36132
H	-1.104198	-1.307047	1.634256
H	0.56755	-1.454998	-0.871715
H	1.042458	0.572427	1.37563
H	1.836615	-1.018264	1.270956
H	2.152934	1.189337	-0.87817
