19

O	3.593675	-0.65362	-0.137716
C	2.360484	-0.36765	0.50278
C	1.154633	-0.590165	-0.417587
C	-0.158717	-0.364341	0.299914
C	-0.730686	1.00892	0.441517
O	0.009176	2.054496	-0.109349
C	-1.413379	0.013609	-0.496408
C	-2.69066	-0.540497	-0.167774
C	-3.763785	-1.000682	0.124521
H	3.713001	-0.007575	-0.841077
H	2.308783	-1.048071	1.360372
H	2.336561	0.659125	0.896939
H	1.228522	0.095567	-1.269117
H	1.195636	-1.610471	-0.815677
H	-0.343444	-1.026047	1.141615
H	-1.262435	1.245851	1.361807
H	-0.604211	2.735607	-0.404786
H	-1.232441	0.204689	-1.551037
H	-4.71011	-1.410842	0.375702
