19

C	-1.770611	1.64349	0.053114
C	-0.938214	0.397867	0.020513
C	-0.44253	-0.454996	1.185459
C	1.066941	-0.682798	1.101126
C	1.4616	-0.090671	-0.282162
O	2.040902	1.203482	-0.197949
C	0.121571	-0.05292	-1.019876
O	-0.417441	-1.413485	-1.03306
C	-1.264184	-1.063481	0.064403
H	-2.525869	1.584145	0.843617
H	-1.164786	2.537006	0.248322
H	-2.294099	1.801557	-0.896278
H	-0.935068	-0.348308	2.14638
H	1.60773	-0.157334	1.893927
H	1.323221	-1.743691	1.169071
H	2.192409	-0.710675	-0.807372
H	1.459166	1.751837	0.34038
H	0.133408	0.398598	-2.013301
H	-2.19124	-1.612055	0.187869
