19

C	2.573209	0.489701	0.385988
C	1.488159	-0.454287	-0.075367
O	1.666292	-1.308208	-0.912333
C	0.10797	-0.245843	0.563548
C	-0.886697	-1.395157	0.357327
C	-2.27116	-0.722097	0.239075
C	-1.98464	0.585247	-0.510527
C	-0.592569	1.002505	-0.045117
O	-0.113678	2.104305	-0.119768
H	2.215463	1.520965	0.295776
H	2.787452	0.316436	1.447395
H	3.480258	0.337596	-0.199916
H	0.25456	-0.005351	1.624591
H	-0.624148	-1.908797	-0.572611
H	-0.845687	-2.134411	1.160522
H	-3.000692	-1.355632	-0.270628
H	-2.672944	-0.498833	1.234334
H	-1.916253	0.406657	-1.592933
H	-2.704554	1.392175	-0.359288
