19

C	2.218441	-0.390152	-0.707633
C	1.216951	-0.039286	0.405689
C	0.979567	1.452594	0.492046
C	-0.25226	1.833354	0.124179
C	-1.02553	0.640103	-0.255846
O	-2.084345	0.562234	-0.84145
C	-0.214443	-0.601833	0.17456
C	-0.817055	-1.168244	1.470685
O	-0.263282	-1.573633	-0.851147
H	2.363571	-1.470958	-0.761151
H	1.854764	-0.053503	-1.681445
H	3.185929	0.084572	-0.514488
H	1.626167	-0.403301	1.356875
H	1.773698	2.130286	0.791223
H	-0.633693	2.843641	0.051762
H	-0.282679	-2.081158	1.748641
H	-0.747806	-0.452152	2.296177
H	-1.87136	-1.414875	1.313415
H	-1.121609	-1.45057	-1.282316
