19

C	-4.311073	0.612445	0.004229
O	-3.29482	-0.363561	-0.000631
C	-2.001619	0.190448	0.000975
C	-1.007824	-0.977482	-0.00502
C	0.377468	-0.536533	-0.00416
C	1.515317	-0.132032	-0.002965
C	2.884675	0.34678	1.5e-05
C	3.950874	-0.730507	0.006699
O	3.145697	1.531389	-0.003409
H	-5.268309	0.086091	0.002454
H	-4.25743	1.252268	0.898826
H	-4.258434	1.260113	-0.884762
H	-1.840199	0.827147	-0.883623
H	-1.838992	0.819138	0.891074
H	-1.200837	-1.61084	0.869462
H	-1.201896	-1.602597	-0.885197
H	3.838602	-1.376379	-0.870826
H	4.938757	-0.267553	0.006933
H	3.834815	-1.368731	0.88934
