19

C	4.479624	0.464429	-0.00135
C	2.959777	0.636987	-0.003946
C	2.221102	-0.717067	0.004751
C	0.771227	-0.591784	0.002567
C	-0.427461	-0.463283	0.001209
C	-1.867717	-0.405745	-0.000746
O	-2.597077	-1.367719	-0.004742
O	-2.301181	0.871703	0.002466
C	-3.726405	1.022831	0.00052
H	4.984763	1.434614	-0.007573
H	4.816867	-0.081122	0.886978
H	4.818556	-0.093326	-0.881413
H	2.642948	1.218278	0.868831
H	2.644604	1.206084	-0.885322
H	2.527593	-1.311863	-0.8665
H	2.52591	-1.29956	0.884887
H	-3.907689	2.097564	0.00164
H	-4.162874	0.560708	-0.888686
H	-4.165502	0.558537	0.887327
