19

O	-2.030983	1.364609	-0.373204
C	-1.055619	0.776438	0.025816
C	0.170495	1.496722	0.562593
C	1.418691	1.267256	-0.321956
C	2.232453	-0.000213	-0.00021
C	1.418463	-1.267367	0.322071
C	0.170187	-1.496878	-0.562338
C	-1.055847	-0.776308	-0.025765
O	-2.031467	-1.364208	0.373009
H	-0.091637	2.557118	0.594539
H	0.370151	1.168625	1.591415
H	1.106085	1.259508	-1.373203
H	2.077278	2.135521	-0.221731
H	2.891807	-0.203666	-0.852268
H	2.892436	0.203002	0.851414
H	2.076867	-2.135806	0.222134
H	1.105929	-1.259169	1.373339
H	0.369834	-1.168995	-1.591237
H	-0.09208	-2.557247	-0.594108
