19

C	-2.967308	-0.064742	-0.152733
C	-1.497995	0.145479	-0.038742
C	-0.698705	1.168326	-0.372395
C	0.687581	0.643537	-0.016707
C	1.913859	1.50568	-0.057219
O	0.43184	-0.031695	1.28391
C	-0.472684	-0.863143	0.481188
C	0.616112	-0.809137	-0.649152
O	1.740029	-1.602618	-0.452183
H	-3.199093	-0.941184	-0.771027
H	-3.421535	-0.246701	0.829345
H	-3.460765	0.80257	-0.599852
H	-0.934771	2.121002	-0.825752
H	1.980507	2.027203	-1.017212
H	1.884005	2.254031	0.74051
H	2.81511	0.898343	0.065243
H	-0.790768	-1.786477	0.965735
H	0.300411	-0.907304	-1.689801
H	1.96678	-1.502977	0.483559
