19

C	-2.10404	1.280596	-0.497917
C	-1.430038	1e-06	-0.057725
C	-2.104048	-1.280591	-0.497916
O	-0.97257	-3e-06	1.316557
C	-0.001301	-3e-06	0.285793
C	1.051974	-1.11371	0.130226
C	2.083701	0.0	-0.139902
O	3.233404	1e-06	-0.466749
C	1.051972	1.113707	0.130233
H	-1.577836	2.155948	-0.111594
H	-2.138322	1.3454	-1.59097
H	-3.135189	1.312581	-0.129848
H	-1.577838	-2.155947	-0.11161
H	-3.135192	-1.312578	-0.129832
H	-2.138348	-1.345385	-1.59097
H	1.247246	-1.662926	1.05751
H	0.916126	-1.832892	-0.68272
H	1.247244	1.662913	1.057523
H	0.916124	1.832897	-0.682706
