19

C	2.26564	-0.706774	0.804585
C	1.58448	-0.232477	-0.477221
C	1.111857	1.22936	-0.415892
C	-0.347825	1.101333	0.022966
O	-1.071815	1.968212	0.445607
C	-0.702788	-0.33727	-0.167228
C	-2.096563	-0.75873	-0.531381
C	-1.585669	-1.026232	0.858304
O	0.388121	-1.00047	-0.7422
H	1.635334	-0.519039	1.680311
H	2.466788	-1.779845	0.749956
H	3.215654	-0.181868	0.950415
H	2.242021	-0.413508	-1.331689
H	1.67852	1.864937	0.26714
H	1.126546	1.698758	-1.406192
H	-2.823763	0.034188	-0.668821
H	-2.173437	-1.597804	-1.213505
H	-1.963486	-0.41852	1.673411
H	-1.309421	-2.044494	1.106921
