19

O	2.827356	0.319695	0.12451
C	1.949038	-0.49337	-0.013601
C	0.483727	-0.149766	-0.067204
C	0.0923	1.196966	-0.704431
C	-1.377	1.376087	-0.201264
C	-1.610808	0.093416	0.632796
C	-1.594004	-1.108713	-0.324809
O	-0.216097	-1.201698	-0.744314
C	-0.234092	-0.092309	1.30426
H	2.15467	-1.583655	-0.087991
H	0.759775	1.99183	-0.364537
H	0.165231	1.131083	-1.791975
H	-1.478474	2.267916	0.42367
H	-2.093716	1.467936	-1.021988
H	-2.47855	0.120312	1.29355
H	-1.886061	-2.044791	0.168516
H	-2.235715	-0.963464	-1.201869
H	0.081137	0.756207	1.915163
H	-0.133339	-1.021215	1.871413
