19

C	2.491537	-0.02547	-0.315106
C	1.676606	-0.471624	0.913036
C	0.452675	0.037129	0.120648
C	-0.414791	1.163629	0.710347
C	-1.7329	1.151988	-0.100633
C	-1.857429	-0.291358	-0.549241
O	-1.623931	-1.237019	0.506947
C	-0.558287	-0.959543	-0.412014
O	1.309385	0.479159	-0.97304
H	3.231948	0.764558	-0.143501
H	2.963775	-0.8325	-0.888707
H	1.681331	-1.54034	1.1339
H	1.880435	0.084106	1.830193
H	-0.617324	0.938458	1.760842
H	0.112622	2.118413	0.659547
H	-2.5932	1.48797	0.485865
H	-1.661364	1.79334	-0.986362
H	-2.595557	-0.593877	-1.287295
H	-0.230765	-1.78575	-1.037953
