19

C	-0.413142	1.836692	1.168202
C	-0.706481	0.438198	0.612243
C	-1.648621	0.487742	-0.604788
O	-2.220352	-0.767435	-0.910791
C	0.581169	-0.307907	0.259589
C	1.072622	-1.398164	1.128741
O	0.392552	-1.707045	-0.085513
C	1.52865	0.382757	-0.585629
C	2.303887	0.975494	-1.287485
H	-1.340258	2.312979	1.500001
H	0.268985	1.791663	2.022968
H	0.046808	2.476292	0.409083
H	-1.217109	-0.1575	1.378262
H	-2.483419	1.162901	-0.385553
H	-1.105638	0.912325	-1.466221
H	-1.509717	-1.419535	-0.902075
H	2.133164	-1.639894	1.135024
H	0.52847	-1.622751	2.04494
H	2.992616	1.490492	-1.911245
