19

C	-3.261363	0.073601	-0.128657
O	-2.052963	-0.598501	-0.407056
C	-0.982063	-0.211068	0.433667
C	-0.352457	1.160337	0.102504
C	1.151113	0.881078	-0.005441
O	2.030939	1.705905	-0.091357
C	1.33869	-0.597222	0.024172
C	2.687984	-1.207836	-0.163527
C	0.156571	-1.184204	0.249037
H	-3.185238	1.156953	-0.30421
H	-4.020376	-0.336842	-0.798598
H	-3.58209	-0.084501	0.913211
H	-1.326591	-0.2336	1.482781
H	-0.716556	1.502731	-0.872157
H	-0.548166	1.950752	0.830705
H	3.398054	-0.788283	0.557117
H	2.664251	-2.293974	-0.049012
H	3.08327	-0.968105	-1.156751
H	-0.021215	-2.252473	0.313697
