19

C	-3.034168	-0.419489	-0.496562
O	-1.942231	-0.553442	0.38879
C	-0.710436	-0.33638	-0.21275
C	-0.164383	1.152069	-0.246229
O	0.104325	1.010184	1.185202
C	0.471768	-0.350709	0.807323
C	1.661624	-0.125714	-0.144419
C	2.917157	-0.922812	-0.194238
C	1.211775	0.912547	-0.863488
H	-2.947042	-1.105218	-1.353584
H	-3.937369	-0.666559	0.065364
H	-3.126512	0.606263	-0.882316
H	-0.598061	-0.920464	-1.137706
H	-0.761077	2.022112	-0.516143
H	0.537314	-1.058216	1.633378
H	2.709875	-1.984963	-0.376221
H	3.584169	-0.569193	-0.985347
H	3.459619	-0.86971	0.758085
H	1.662304	1.434941	-1.695265
