19

C	2.728688	-0.334797	-0.028614
O	1.513064	0.086174	-0.624511
C	0.364185	-0.262215	0.079648
C	0.032779	0.457925	1.383958
C	-0.748825	0.75869	0.120687
O	-0.584044	1.99861	-0.489016
C	-2.061101	0.018962	-0.120026
C	-1.630737	-1.432173	-0.215359
C	-0.305757	-1.58116	-0.1343
H	2.799059	-1.430205	0.013394
H	3.539061	0.047327	-0.653511
H	2.83656	0.062021	0.989461
H	-0.413681	-0.106042	2.196825
H	0.711913	1.251971	1.678437
H	0.248948	1.955469	-0.977621
H	-2.7887	0.182654	0.684076
H	-2.528085	0.370195	-1.048579
H	-2.345199	-2.242154	-0.309519
H	0.232566	-2.520893	-0.180704
