19

C	-2.981705	-0.765478	-0.060048
C	-1.975074	0.355579	0.213393
C	-0.587846	0.077916	-0.379389
C	0.326169	-0.910197	0.399883
O	1.27977	-1.577719	-0.448095
C	2.301801	-0.600465	-0.155938
C	1.343998	0.226937	0.736605
C	0.443821	1.18523	-0.055522
O	0.471062	2.364705	-0.25816
H	-3.953	-0.536639	0.389091
H	-3.132762	-0.904111	-1.135717
H	-2.642023	-1.721661	0.351609
H	-2.338317	1.301747	-0.203095
H	-1.883454	0.518153	1.295738
H	-0.662603	-0.167906	-1.444134
H	-0.136608	-1.574159	1.133055
H	3.133021	-1.048425	0.400665
H	2.692214	-0.110052	-1.054827
H	1.689898	0.530034	1.723751
