19

C	-2.97717	1.349492	0.217997
C	-2.549104	0.035941	-0.452932
O	-3.30094	-1.072995	0.034128
C	-1.105249	-0.185828	-0.321776
C	0.07536	-0.370745	-0.16127
C	1.480218	-0.62206	0.006719
O	2.116357	-0.100397	1.190406
C	2.488145	0.458631	-0.066645
C	3.895809	0.209052	-0.539576
H	-2.730371	1.332633	1.284326
H	-2.466544	2.20394	-0.235519
H	-4.057126	1.476352	0.107399
H	-2.80197	0.087805	-1.519133
H	-3.000135	-1.252144	0.932169
H	1.809401	-1.627241	-0.256668
H	2.104094	1.467011	-0.226917
H	4.185163	-0.831344	-0.369071
H	3.987566	0.430767	-1.607992
H	4.598528	0.85246	3.3e-05
