19

O	-2.563289	0.549982	-0.521325
C	-1.588988	-0.450759	-0.450692
C	-1.156765	-0.985146	0.887709
C	-0.253099	-0.051726	0.106957
C	-0.001914	1.391414	0.559405
C	1.426241	1.632821	0.141961
C	1.979063	0.578977	-0.456276
C	1.043792	-0.603594	-0.527894
O	1.570271	-1.770359	0.103863
H	-3.410493	0.159694	-0.283334
H	-1.58528	-1.141887	-1.295065
H	-1.650148	-0.574768	1.763721
H	-0.857497	-2.025243	0.959672
H	-0.695937	2.086568	0.07342
H	-0.136987	1.532602	1.640102
H	1.921669	2.582793	0.31399
H	2.990139	0.521131	-0.843255
H	0.871383	-0.929453	-1.560987
H	1.807319	-1.520343	1.004405
