19

C	-2.314151	-1.050729	0.364821
O	-1.314578	-0.811724	-0.620207
C	-0.227925	-0.057642	-0.193207
C	-0.49746	1.375236	0.098408
O	-1.589344	1.888421	0.026318
C	1.034992	-0.524848	-0.901619
C	2.278947	0.29743	-0.54531
C	2.061109	-0.070463	0.963058
C	0.822917	-0.881749	0.559323
H	-2.8187	-0.124507	0.652372
H	-3.03512	-1.73257	-0.091526
H	-1.890225	-1.529009	1.258891
H	0.388243	1.972315	0.397915
H	0.891294	-1.138301	-1.782336
H	3.188309	-0.15676	-0.94389
H	2.279128	1.355564	-0.819115
H	2.860315	-0.710278	1.343194
H	1.915504	0.74864	1.672006
H	0.502054	-1.822077	0.990769
