19

O	-2.380036	-1.023722	0.010363
C	-1.400368	-0.179653	-0.56613
C	-1.384051	1.287716	-0.022503
C	-0.05918	1.011954	0.762338
C	1.25118	1.506954	0.090934
C	1.302252	0.185198	-0.710796
O	2.07435	-0.855406	-0.066881
C	0.877886	-1.528244	0.409368
C	0.017642	-0.349275	-0.017949
H	-2.323766	-0.942973	0.96899
H	-1.519226	-0.303603	-1.646502
H	-1.302103	2.061006	-0.791627
H	-2.253403	1.513909	0.600826
H	-0.134479	1.071467	1.849962
H	1.15425	2.422505	-0.501148
H	2.105781	1.606819	0.764073
H	1.466846	0.211157	-1.793296
H	0.688953	-2.454665	-0.150701
H	0.930461	-1.760494	1.479993
