19

O	-0.493606	1.950885	0.147041
C	0.431916	1.050446	-0.373088
C	1.469852	0.576497	0.59815
C	2.507701	-0.278858	-0.133523
C	1.365533	-1.238169	-0.610926
C	0.3437	-0.369403	0.135067
C	-0.873788	-0.868259	0.876146
C	-2.149405	-0.870343	0.051586
O	-2.495957	0.044948	-0.659154
H	-1.352707	1.675692	-0.209392
H	0.717039	1.225728	-1.415608
H	1.590697	1.075452	1.552367
H	3.075887	0.231338	-0.918471
H	3.210555	-0.774913	0.538681
H	1.219297	-1.3311	-1.693003
H	1.465043	-2.241387	-0.187333
H	-0.704328	-1.868024	1.291137
H	-1.079908	-0.20359	1.726443
H	-2.798118	-1.767327	0.151609
