19

C	2.489203	-0.26136	-0.209198
C	1.008941	-0.185126	0.031669
C	0.027816	-1.222622	-0.486742
O	-1.203334	-0.840346	-1.047786
C	-1.925983	-0.130437	-0.034954
C	-0.88742	0.189962	1.039944
C	0.095763	-1.007067	0.981191
C	0.255718	1.072586	0.428889
O	-0.034381	1.969112	-0.621132
H	2.76103	0.274158	-1.125684
H	3.053027	0.184156	0.61921
H	2.823935	-1.29825	-0.318545
H	0.446784	-2.108239	-0.951
H	-2.345765	0.775287	-0.48339
H	-2.742752	-0.754448	0.356659
H	-1.299818	0.500418	1.999667
H	0.334296	-1.726148	1.75309
H	0.801198	1.579839	1.237585
H	-0.314445	2.807475	-0.241043
