19

C	1.871274	-0.772856	-0.781979
C	2.497482	0.090647	0.306166
C	1.029114	0.135129	0.045742
O	0.375946	1.292677	-0.486893
C	-0.761237	1.09891	0.393716
C	-2.015883	0.620648	-0.328563
C	-1.71789	-0.871872	-0.552692
O	-0.961781	-1.28178	0.590573
C	-0.139849	-0.200882	0.970374
H	2.048861	-0.478621	-1.810959
H	1.77901	-1.841517	-0.618611
H	2.850124	-0.385776	1.215675
H	3.079472	0.94766	-0.015512
H	-0.909875	1.959273	1.050797
H	-2.883925	0.746872	0.327206
H	-2.191627	1.170444	-1.255904
H	-2.60873	-1.50191	-0.60247
H	-1.133612	-1.014187	-1.471684
H	0.078914	-0.287756	2.035433
