19

C	-2.495265	0.136222	-0.391972
C	-1.031467	0.032302	-0.092303
O	-0.31076	-0.702762	-1.071428
C	0.980451	-0.892066	-0.516166
C	0.728305	-1.20854	0.97169
C	-0.400098	-0.233364	1.255064
C	-0.208582	1.112122	0.561993
C	1.154688	1.421805	-0.033567
O	1.753946	0.276704	-0.65102
H	-2.943883	-0.859088	-0.47412
H	-3.009673	0.684208	0.402296
H	-2.663212	0.663762	-1.336539
H	1.492114	-1.665798	-1.088718
H	0.39727	-2.243573	1.105267
H	1.634995	-1.047233	1.560046
H	-0.987331	-0.30529	2.16266
H	-0.733574	1.967099	0.977237
H	1.063301	2.203549	-0.798991
H	1.83631	1.799945	0.742018
