19

O	-1.433606	1.613825	0.252923
C	-1.281904	0.286804	-0.250809
C	-0.170206	-0.377907	0.573362
C	1.167804	0.31236	0.36892
C	2.433415	-0.406338	0.888224
C	2.875513	-0.390522	-0.588535
O	1.628831	0.20391	-1.004735
C	-2.540195	-0.462158	-0.181594
C	-3.584729	-1.055588	-0.132656
H	-2.138715	2.039209	-0.245407
H	-0.945491	0.313036	-1.298648
H	-0.448658	-0.342288	1.632949
H	-0.091394	-1.428716	0.276277
H	1.092265	1.364905	0.664489
H	3.054669	0.161487	1.581944
H	2.248827	-1.400145	1.301981
H	3.730657	0.259976	-0.811858
H	3.043483	-1.366362	-1.059531
H	-4.505621	-1.58289	-0.089171
