19

C	-1.986354	-0.533657	0.087044
C	-1.686027	0.904956	-0.437292
C	-0.159385	0.897188	-0.644682
C	0.627132	0.828751	0.67796
O	1.9311	0.451596	0.299552
C	1.731398	-0.606265	-0.660973
C	0.219739	-0.582494	-0.924535
C	-0.569987	-1.06722	0.313048
O	0.005193	-0.254271	1.371869
H	-2.558471	-0.540962	1.017062
H	-2.527592	-1.133528	-0.652622
H	-2.20397	1.110999	-1.377839
H	-1.991915	1.676716	0.274831
H	0.234524	1.643751	-1.334349
H	0.682753	1.700811	1.328586
H	2.31976	-0.389025	-1.55964
H	2.073111	-1.560763	-0.241941
H	-0.099217	-1.013757	-1.873691
H	-0.478416	-2.120399	0.584812
