19

C	-2.64146	0.012681	0.369072
C	-1.319555	-0.5989	-0.06848
O	-1.247101	-1.779447	-0.344095
C	-0.091635	0.257868	-0.127762
C	-0.185466	1.641987	-0.773828
C	0.013392	1.527418	0.700456
C	1.165504	-0.525074	-0.396931
C	2.101163	-0.902633	0.666427
O	2.39798	0.177884	-0.228459
H	-2.651414	0.104136	1.461534
H	-2.815683	1.010254	-0.041792
H	-3.449524	-0.657278	0.073273
H	0.669427	1.931586	-1.374183
H	-1.144427	1.967827	-1.158715
H	1.001968	1.75223	1.082978
H	-0.807957	1.775517	1.361884
H	1.122849	-1.156887	-1.281714
H	1.891615	-0.607973	1.693392
H	2.724466	-1.786986	0.550047
