19

C	2.956508	-0.83588	0.086917
C	1.63307	-0.162316	0.017987
C	1.231185	1.128315	0.166781
C	-0.194644	1.14922	-0.017942
C	-1.078244	2.357133	0.051452
C	-0.553373	-0.144392	-0.271172
C	-1.856968	-0.817765	-0.511419
O	-2.312707	-1.602407	0.590153
O	0.557198	-0.949527	-0.249845
H	3.735658	-0.104078	0.310799
H	2.973361	-1.606365	0.866033
H	3.206864	-1.326074	-0.860796
H	1.868718	1.972941	0.381461
H	-1.014298	2.842388	1.03231
H	-0.787479	3.106486	-0.693733
H	-2.1272	2.105528	-0.125543
H	-2.598335	-0.056697	-0.795228
H	-1.772429	-1.520153	-1.347066
H	-2.266002	-1.044392	1.373673
