19

C	-0.323262	2.019479	0.675921
C	0.776904	1.026182	0.333871
C	0.997434	0.482061	-1.110396
C	1.89552	-0.625869	-0.466442
C	0.623062	-0.546863	0.414905
O	0.351922	-1.322916	1.516575
C	-0.191591	-0.517969	-0.910369
C	-1.656121	-0.202172	-0.840632
O	-2.33881	-0.531179	0.105044
H	0.039924	3.041538	0.523697
H	-1.231249	1.912433	0.079064
H	-0.613868	1.927269	1.728335
H	1.711142	1.353916	0.803116
H	1.221723	1.05678	-2.006057
H	2.032699	-1.54378	-1.042805
H	2.828624	-0.282113	-0.015064
H	-0.607139	-1.299163	1.636407
H	-0.099139	-1.422924	-1.530027
H	-2.119292	0.27971	-1.730775
