19

C	2.273726	-1.290489	0.467645
C	0.944809	-0.587804	0.639019
C	-0.066458	-0.678413	-0.523833
C	-1.504919	-0.534505	-0.176886
O	-2.417012	-1.213883	-0.582831
C	-1.654711	0.697461	0.73577
C	-0.425765	1.579787	0.434239
C	0.631689	0.635559	-0.139291
O	1.660311	1.186245	-0.892382
H	2.659383	-1.164039	-0.545788
H	3.016551	-0.877754	1.158169
H	2.176362	-2.360669	0.675076
H	0.530295	-0.652714	1.642625
H	0.218344	-1.270354	-1.384974
H	-2.612445	1.186283	0.54936
H	-1.666125	0.36155	1.779577
H	-0.678848	2.321358	-0.334084
H	-0.054324	2.129851	1.304533
H	1.274189	1.618017	-1.662763
