19

C	-3.557444	-0.557794	-0.212712
O	-2.201738	-0.312678	-0.499635
C	-1.532284	0.330508	0.572703
C	-0.096273	0.506877	0.247979
C	0.656074	1.58671	-0.093471
C	1.993105	1.108821	-0.278896
C	1.960946	-0.230957	-0.03715
C	2.993391	-1.300054	-0.061082
O	0.693281	-0.608641	0.289523
H	-4.114785	0.375193	-0.028109
H	-3.989022	-1.059163	-1.082243
H	-3.679862	-1.20698	0.669468
H	-1.973519	1.321067	0.767937
H	-1.643465	-0.266853	1.493595
H	0.299558	2.599273	-0.203357
H	2.863081	1.683895	-0.555561
H	3.095717	-1.783385	0.9173
H	2.743615	-2.082317	-0.786801
H	3.961242	-0.874853	-0.335557
