19

C	-1.553464	1.742792	-0.386945
C	-1.185958	0.395503	0.139386
C	-0.376887	0.095028	1.366746
C	0.04664	-0.492769	0.033788
C	-0.946504	-1.585039	-0.349089
O	-2.075153	-0.700053	-0.134792
C	1.370837	-0.258903	-0.591458
C	2.631833	-0.322606	0.165628
O	2.056876	0.934695	-0.197877
H	-1.766016	1.700803	-1.459595
H	-2.446979	2.122253	0.121931
H	-0.736356	2.448856	-0.217198
H	0.263061	0.904261	1.703951
H	-0.790369	-0.540911	2.145577
H	-0.884235	-1.881825	-1.403566
H	-0.989496	-2.480231	0.283133
H	1.419553	-0.460779	-1.663549
H	2.598342	-0.558804	1.227775
H	3.55973	-0.57479	-0.34545
