19

O	-3.211938	-0.670159	0.112794
C	-2.203326	-0.130919	0.488001
C	-1.363329	0.816769	-0.346946
C	0.103051	0.434831	-0.358604
C	1.178608	1.507278	-0.476029
C	1.050772	0.690878	0.785758
O	1.906328	-0.400494	0.981507
C	1.869919	-1.203143	-0.200395
C	0.50231	-0.946917	-0.872429
H	-1.809733	-0.301255	1.517103
H	-1.78545	0.857272	-1.356736
H	-1.471898	1.817002	0.096294
H	2.026439	1.340245	-1.131832
H	0.848262	2.540075	-0.432726
H	0.764964	1.156665	1.721991
H	2.693168	-0.922299	-0.871285
H	2.020862	-2.243971	0.097207
H	0.569298	-1.005834	-1.963148
H	-0.239069	-1.685342	-0.5474
