19

O	-2.807874	0.217471	-0.475809
C	-1.932591	-0.11951	0.592274
C	-0.481423	0.013454	0.214383
C	0.06824	1.363102	-0.262617
C	1.583841	1.311148	0.079108
C	1.829864	-0.177974	0.284555
O	1.458405	-0.868484	-0.961081
C	0.211784	-1.217801	-0.364878
C	0.580664	-0.739448	1.000733
H	-2.559377	-0.323321	-1.233041
H	-2.182147	0.577154	1.401005
H	-2.131033	-1.136976	0.969636
H	-0.093832	1.501633	-1.334521
H	-0.441212	2.184996	0.249275
H	2.215127	1.718866	-0.715178
H	1.806061	1.856061	1.004256
H	2.821782	-0.48044	0.62383
H	-0.292155	-2.111979	-0.717595
H	0.49027	-1.175707	1.986099
