19

C	2.381496	-1.176898	-0.129799
C	1.096079	-0.5627	0.416998
C	-0.217791	-1.292374	0.043573
C	-1.28273	-0.201013	-0.033418
C	-2.637197	-0.484309	-0.62005
O	-1.245683	0.645897	1.11854
C	-0.616356	1.120297	-0.090744
C	0.868969	0.877808	-0.07568
O	1.716042	1.643774	-0.460641
H	2.335089	-1.28275	-1.218764
H	3.235882	-0.536334	0.102443
H	2.559229	-2.166702	0.300982
H	1.159488	-0.497685	1.510555
H	-0.12001	-1.77266	-0.93769
H	-0.494826	-2.069684	0.762913
H	-2.548307	-0.817869	-1.658883
H	-3.13928	-1.27696	-0.054371
H	-3.266172	0.408485	-0.58832
H	-1.038788	2.009925	-0.547336
