19

C	-0.584809	-0.927204	1.091783
C	-1.256343	0.425536	0.783522
O	-2.042591	0.0732	-0.401581
C	-0.743594	-0.002504	-1.04635
C	-0.269447	1.173118	-0.16604
C	1.22586	1.329911	0.077778
O	1.890664	0.119125	0.400743
C	1.493268	-0.980879	-0.402361
C	-0.025986	-1.187501	-0.343914
H	0.195964	-0.872976	1.851762
H	-1.339379	-1.658265	1.387826
H	-1.828077	0.928029	1.563618
H	-0.772838	0.022821	-2.13617
H	-0.71403	2.113696	-0.498232
H	1.670457	1.774098	-0.830416
H	1.42738	2.014891	0.908403
H	1.820708	-0.838887	-1.447523
H	2.028492	-1.846606	-0.001318
H	-0.306952	-2.158258	-0.757753
