19

C	2.311037	-1.026575	0.032011
C	0.985254	-0.40312	-0.407134
C	-0.204701	-1.342912	-0.235623
C	-1.579477	-0.785246	-0.543693
O	-1.551315	0.6473	-0.596469
C	-0.89378	0.646649	0.721762
C	-1.124024	-0.865604	0.879966
C	0.593408	0.859456	0.438262
O	0.84378	2.090318	-0.203369
H	2.584282	-1.87843	-0.599646
H	3.119731	-0.290771	-0.027635
H	2.255382	-1.382739	1.067151
H	1.074815	-0.081559	-1.451092
H	-0.078745	-2.411906	-0.374989
H	-2.356612	-1.296084	-1.099684
H	-1.365507	1.356738	1.401749
H	-1.482711	-1.419006	1.735653
H	1.162537	0.879321	1.375667
H	0.220813	2.127597	-0.94177
