19

C	1.800782	1.353314	-0.217573
C	0.83877	0.240249	0.126071
C	1.298191	-0.9374	0.970916
C	0.909083	-1.142411	-0.471682
O	-0.386952	-1.615791	-0.764152
C	-1.33051	-0.609199	-0.503369
C	-1.635189	-0.227057	0.935106
C	-0.656694	0.581772	0.106627
O	-1.009817	1.866538	-0.306198
H	1.850566	2.099799	0.58417
H	2.811118	0.957604	-0.357482
H	1.501154	1.868515	-1.133759
H	2.359768	-0.97957	1.196164
H	0.667242	-1.342067	1.75272
H	1.644616	-1.455864	-1.205456
H	-2.111092	-0.536319	-1.252567
H	-2.604459	0.238321	1.085628
H	-1.299275	-0.854743	1.750858
H	-0.992088	2.442744	0.465947
