19

C	-0.720821	-0.224432	1.315178
C	-0.849087	1.063097	0.474629
O	0.416225	1.676491	0.204989
C	1.343781	0.919726	-0.560974
C	1.762423	-0.433247	0.028653
O	0.863439	-1.521071	-0.131471
C	-0.503533	-1.316967	0.252862
C	-1.306089	-0.766682	-0.918906
C	-1.512762	0.542962	-0.787245
H	0.064338	-0.167976	2.07076
H	-1.669424	-0.416445	1.825694
H	-1.418137	1.845286	0.983264
H	0.990822	0.768945	-1.589885
H	2.238235	1.551042	-0.601387
H	2.671256	-0.753189	-0.493411
H	2.02698	-0.290585	1.087491
H	-0.850142	-2.301147	0.581508
H	-1.588772	-1.38188	-1.76552
H	-1.985943	1.195843	-1.511843
