19

C	-3.152214	0.509151	-0.37266
C	-1.868974	-0.286489	-0.482568
O	-1.551755	-0.956774	0.786257
C	-0.390556	-0.155485	0.916548
C	-0.574373	0.522716	-0.394698
C	0.597765	-0.439354	-0.214197
C	1.932099	0.197332	-0.042471
C	3.133646	-0.642596	-0.43094
O	2.045672	1.322522	0.404542
H	-3.992571	-0.159908	-0.166048
H	-3.085296	1.244175	0.434386
H	-3.353008	1.036065	-1.311883
H	-1.924432	-1.017834	-1.298419
H	-0.078179	0.188716	1.894446
H	-0.414188	1.553201	-0.678906
H	0.559745	-1.421851	-0.676318
H	3.084897	-0.902055	-1.494928
H	4.0525	-0.09142	-0.228478
H	3.134832	-1.586719	0.125665
