19

C	2.503848	-0.195227	-0.04841
C	1.01884	-0.367413	0.089166
O	0.38917	0.318214	1.22092
C	-0.013255	0.661232	-0.120798
C	0.181261	2.086695	-0.548626
C	-1.330642	-0.061498	-0.467388
O	-2.348363	0.218784	0.480212
C	-0.924974	-1.527225	-0.485944
C	0.360635	-1.693322	-0.176944
H	2.831664	-0.475919	-1.055038
H	2.801996	0.837464	0.14307
H	3.030676	-0.837531	0.665865
H	0.152046	2.171998	-1.64011
H	-0.626061	2.705507	-0.141787
H	1.132288	2.485872	-0.189426
H	-1.725286	0.270075	-1.435025
H	-1.932548	0.077747	1.342096
H	-1.651687	-2.313116	-0.656434
H	0.886175	-2.637532	-0.088607
