19

O	2.296704	0.21931	-0.485561
C	0.973686	0.08841	-0.042861
C	0.673531	-0.595168	1.32724
C	-0.594016	-1.174433	0.672269
C	-1.600462	-0.107362	0.107968
C	-1.157883	1.317342	0.422667
C	0.296254	1.460334	-0.09175
O	-1.192806	-0.402882	-1.268576
C	0.004619	-0.974198	-0.729079
H	2.720812	-0.643935	-0.44093
H	1.385695	-1.401072	1.538657
H	0.593081	0.043878	2.211336
H	-1.032746	-2.108891	1.019144
H	-2.66641	-0.294172	0.258105
H	-1.817416	2.038632	-0.068693
H	-1.226379	1.498047	1.501534
H	0.298874	1.810067	-1.126958
H	0.872878	2.173017	0.505099
H	0.466049	-1.736548	-1.362918
