19

C	-2.864747	-0.525137	-0.662128
C	-1.394689	-0.230636	-0.46314
C	-0.965236	0.857335	0.490137
C	0.272647	1.678676	0.213607
O	1.294911	0.956212	-0.490661
C	1.614363	-0.320565	-0.151452
O	2.557471	-0.843855	-0.677377
C	0.732924	-1.014211	0.87792
C	-0.721132	-0.584225	0.845068
H	-3.020106	-1.554496	-1.002702
H	-3.423625	-0.396615	0.27112
H	-3.306684	0.144043	-1.40827
H	-0.786964	-0.343146	-1.357544
H	-1.743061	1.401044	1.019256
H	0.055075	2.53935	-0.425553
H	0.692739	2.060781	1.154571
H	0.859188	-2.088125	0.718912
H	1.15796	-0.79178	1.867041
H	-1.348352	-1.037337	1.607392
