19

C	-2.713209	1.006608	0.071271
C	-1.257317	0.969259	-0.406401
C	-0.543615	-0.300713	-0.000935
O	-1.055558	-1.461277	-0.620947
C	0.064542	-0.455642	1.369819
C	0.976285	-0.371397	0.141918
O	1.576276	-1.556716	-0.285833
C	1.784428	0.800732	-0.0589
C	2.463807	1.780904	-0.213504
H	-3.279813	0.164725	-0.339235
H	-2.775343	0.957467	1.163987
H	-3.206802	1.927744	-0.251029
H	-1.221411	1.047847	-1.499527
H	-0.703161	1.826278	-0.012355
H	-1.634391	-1.915455	-0.000588
H	0.023344	0.390691	2.046581
H	0.033721	-1.434227	1.838447
H	0.878938	-2.040478	-0.753852
H	3.069646	2.640842	-0.357799
