19

C	0.436185	1.989998	-0.877678
C	0.643937	1.192276	0.407269
C	-0.65386	0.893691	1.229316
C	-0.593572	-0.601229	0.817519
C	-1.607255	-1.039913	-0.215951
O	-2.465083	-0.333145	-0.681354
C	0.79949	-0.322354	0.202031
C	1.999653	-1.157084	0.234889
O	1.277378	-0.92986	-0.98562
H	0.214004	3.036302	-0.644812
H	1.330483	1.95939	-1.507214
H	-0.399173	1.589193	-1.459377
H	1.453595	1.63298	0.997329
H	-0.544743	1.050428	2.303415
H	-1.550548	1.403061	0.872639
H	-0.58361	-1.343579	1.623365
H	-1.495977	-2.095589	-0.545721
H	2.981204	-0.687164	0.28692
H	1.948933	-2.173306	0.624867
