19

O	-2.906059	-0.775101	0.052249
C	-1.94772	-0.106382	-0.760102
C	-0.671713	0.181903	-0.031475
C	-0.426669	1.464823	0.730124
C	0.466938	1.108495	-0.428536
C	1.482419	-0.038535	-0.126735
O	2.504171	-0.332967	-1.009581
C	1.436246	-0.551976	1.284609
C	0.355091	-0.945254	0.292579
H	-3.017973	-0.247451	0.850126
H	-1.764522	-0.781712	-1.603752
H	-2.352241	0.83197	-1.174363
H	-1.139691	2.255684	0.509179
H	-0.071844	1.484686	1.754372
H	0.544077	1.715923	-1.321947
H	3.273412	0.195764	-0.76702
H	2.149448	-1.353424	1.455277
H	1.255105	0.064745	2.158854
H	0.171784	-1.980083	0.035142
