19

C	-1.854789	-0.116453	0.5436
C	-0.945765	1.038068	0.050157
O	-0.873945	0.340069	-1.230593
C	-0.97668	-0.895223	-0.466668
C	0.461675	-1.193995	0.115057
C	0.656208	-0.365412	1.391069
C	0.49031	0.996469	0.683539
C	1.521617	0.780198	-0.447831
O	1.445494	-0.630685	-0.753631
H	-1.905787	-0.398211	1.594729
H	-2.860684	0.01063	0.141958
H	-1.348159	2.048253	-0.053092
H	-1.393486	-1.715025	-1.055048
H	0.657538	-2.264657	0.203811
H	-0.047678	-0.558892	2.197687
H	1.669597	-0.500215	1.780085
H	0.700881	1.871166	1.301936
H	1.303346	1.355288	-1.350174
H	2.536587	1.014679	-0.101637
