19

C	-2.426067	0.68975	-0.57945
C	-1.66804	-0.367246	0.219875
O	-0.800604	0.295503	1.176493
C	0.495798	-0.215717	1.033768
C	1.673145	0.528485	0.269625
O	1.151619	1.567516	-0.516984
C	1.910868	-0.823407	-0.528062
C	0.485343	-1.142422	-0.134141
C	-0.73371	-1.194577	-0.65507
H	-3.123619	0.220908	-1.281683
H	-2.996909	1.330702	0.098534
H	-1.716004	1.310174	-1.132489
H	-2.385237	-0.980316	0.788425
H	0.869483	-0.608577	1.989292
H	2.513533	0.863265	0.892629
H	1.838772	1.85607	-1.125794
H	2.132363	-0.735387	-1.59408
H	2.670282	-1.444404	-0.043209
H	-1.034812	-1.565789	-1.626962
