19

C	-2.630849	-1.188718	-0.264068
C	-1.369812	-0.743425	0.444937
C	-0.09594	-0.691328	-0.389451
C	1.067148	-0.305218	0.523201
O	0.331051	0.837769	1.028021
C	-0.755808	0.58393	0.112694
C	-1.395427	1.779512	-0.511806
C	2.294024	0.143388	-0.248068
O	3.245157	-0.562061	-0.45854
H	-2.706483	-2.280977	-0.269083
H	-3.524125	-0.791853	0.229553
H	-2.649101	-0.855679	-1.306733
H	-1.280313	-1.072473	1.479236
H	-0.017935	-1.124045	-1.378316
H	1.352972	-1.016615	1.306191
H	-0.659061	2.386198	-1.047587
H	-2.18061	1.48525	-1.212352
H	-1.850967	2.406795	0.263015
H	2.225955	1.18889	-0.624416
