19

C	-1.910101	2.067346	-0.242426
C	-0.721351	1.357661	0.408024
C	-0.383304	0.004888	-0.258528
C	-1.454827	-0.973537	-0.0808
C	-2.297523	-1.813448	0.103216
C	0.945303	-0.611271	0.299822
O	1.142189	-1.943597	-0.109946
C	2.149343	0.160546	-0.227405
O	2.456363	1.2725	0.115034
H	-1.708427	2.294733	-1.29502
H	-2.81372	1.451606	-0.1996
H	-2.120537	3.01232	0.266718
H	0.170281	1.988812	0.364637
H	-0.927644	1.176449	1.469522
H	-0.247561	0.164562	-1.337987
H	-3.067222	-2.531514	0.247434
H	0.92499	-0.514906	1.396911
H	0.310317	-2.416092	0.022875
H	2.725862	-0.410313	-0.987611
