19

C	2.268718	-0.632461	-0.272441
C	1.016818	-0.464348	0.595438
C	0.581789	1.002121	0.695362
O	0.405739	1.725181	-0.532413
C	-0.756818	1.343923	0.190906
C	-1.532443	0.141493	-0.347691
C	-1.511304	-0.956442	0.740108
C	-0.164599	-1.289258	0.055032
O	-0.650664	-0.659728	-1.166565
H	2.593669	-1.677898	-0.293193
H	2.052388	-0.311643	-1.294046
H	3.097897	-0.028229	0.108728
H	1.229153	-0.809236	1.61726
H	1.035789	1.594545	1.488915
H	-1.334224	2.157139	0.6299
H	-2.461235	0.402183	-0.860678
H	-1.507963	-0.649225	1.789028
H	-2.258635	-1.73189	0.567037
H	0.099598	-2.339544	-0.101419
