19

C	-1.568702	1.495036	-0.489104
C	-1.26285	0.101241	0.025652
C	-2.117768	-1.015131	-0.54109
C	-0.769181	-0.041132	1.448592
C	0.188001	-0.238021	0.303777
O	0.79196	-1.49876	-0.016918
C	2.039026	-0.874644	-0.407558
C	1.44058	0.497939	-0.051802
O	1.808782	1.636085	-0.054921
H	-0.847634	2.228034	-0.118106
H	-1.540034	1.522756	-1.583895
H	-2.57097	1.806745	-0.172777
H	-1.786543	-1.994297	-0.187575
H	-3.165693	-0.877641	-0.251897
H	-2.070028	-1.02267	-1.63536
H	-0.640614	0.848423	2.057561
H	-1.036247	-0.942037	1.991729
H	2.88382	-1.195579	0.212012
H	2.273376	-1.024061	-1.467778
