19

C	-2.909346	0.205569	0.106743
O	-1.873324	-0.633947	-0.375734
C	-0.602291	-0.157161	-0.165821
C	-0.008703	1.149903	-0.687424
C	1.070526	1.046346	0.444381
C	2.290175	0.282014	-0.072564
O	1.759885	-0.977993	-0.508636
C	0.509013	-1.13155	0.127772
C	0.230152	-0.062747	1.136743
H	-2.958974	1.154588	-0.443657
H	-3.847021	-0.334527	-0.040106
H	-2.780464	0.425074	1.175631
H	0.348126	1.166327	-1.722939
H	-0.674667	1.999514	-0.516947
H	1.29311	1.95733	0.997805
H	2.775501	0.764936	-0.927154
H	3.03841	0.127764	0.719697
H	0.226903	-2.162086	0.306739
H	0.009435	-0.197654	2.186905
