19

O	2.721691	0.002769	-0.332039
C	1.5779	-0.08563	0.0416
C	0.77065	-1.356401	-0.279182
O	-0.427805	-1.515771	0.440573
C	-1.64372	-1.135065	-0.181577
C	-2.106349	0.285726	0.195915
C	-1.324472	1.399902	-0.452785
C	-0.061291	1.73587	-0.182388
C	0.84974	1.02893	0.791699
H	0.601819	-1.379552	-1.365965
H	1.423256	-2.203259	-0.038192
H	-1.564325	-1.235274	-1.273563
H	-2.394884	-1.853134	0.166725
H	-3.163056	0.373115	-0.080081
H	-2.06418	0.360877	1.289849
H	-1.845697	1.967423	-1.220412
H	0.400024	2.541792	-0.747495
H	1.604015	1.709637	1.19138
H	0.277186	0.582403	1.609797
