19

C	-2.191751	1.403811	-0.226131
C	-1.294792	0.297138	0.36823
C	-1.972063	-1.038017	0.136327
O	-1.504639	-1.980604	-0.452985
C	0.139127	0.361	-0.170233
O	0.586889	1.691011	0.030538
C	1.085935	-0.645384	0.528889
C	2.463793	-0.44555	0.096571
C	3.579376	-0.215133	-0.291077
H	-2.250355	1.313793	-1.31588
H	-3.208119	1.340924	0.175415
H	-1.778018	2.382843	0.014479
H	-1.268205	0.44796	1.459049
H	-3.005642	-1.086908	0.551126
H	0.121023	0.115014	-1.243314
H	1.521063	1.714371	-0.211755
H	1.018637	-0.504142	1.615373
H	0.758598	-1.663451	0.301098
H	4.575265	-0.050846	-0.621477
