19

C	2.022473	1.013178	-0.065505
C	1.321997	-0.09337	-0.886646
O	1.842395	-1.092166	0.081646
C	1.314519	0.031232	0.897858
C	0.049233	0.036329	-0.003109
C	-0.904469	1.244584	-0.102744
C	-2.272799	0.615949	0.20513
O	-2.184001	-0.712745	-0.279116
C	-0.89314	-1.183667	0.082672
H	3.110953	0.95069	-0.055302
H	1.653358	2.037884	-0.141128
H	1.401614	-0.332739	-1.948455
H	1.391023	-0.060151	1.982907
H	-0.651673	2.054712	0.585944
H	-0.898112	1.653321	-1.118277
H	-2.465829	0.623928	1.291618
H	-3.111112	1.106338	-0.295791
H	-0.902596	-1.586775	1.108542
H	-0.621664	-1.993323	-0.596228
