19

C	3.434197	-0.62423	-0.307488
C	2.183617	-0.484376	0.540834
O	1.049159	-0.470169	-0.331198
C	-0.156466	-0.331093	0.357711
C	-0.70413	1.064363	0.43177
O	0.051816	2.095325	-0.10765
C	-1.353017	0.033138	-0.508586
C	-2.639919	-0.51788	-0.218249
C	-3.721952	-0.968171	0.055225
H	4.320784	-0.663135	0.332013
H	3.393481	-1.540477	-0.902778
H	3.539762	0.224112	-0.990158
H	2.090897	-1.328496	1.240707
H	2.208089	0.438667	1.137546
H	-0.310746	-1.031959	1.176634
H	-1.276064	1.38084	1.296705
H	0.760314	1.674308	-0.614186
H	-1.109699	0.18136	-1.557533
H	-4.678598	-1.366968	0.284531
