19

O	-2.838613	-1.069088	0.057009
C	-2.259413	0.199958	-0.152397
C	-0.805855	0.086218	-0.605603
C	-0.046457	1.427329	-0.631571
C	0.784945	1.390659	0.661723
C	1.064308	-0.116533	0.813872
O	-0.135151	-0.748708	0.363807
C	2.23013	-0.555446	0.037008
C	3.185127	-0.906617	-0.602876
H	-2.207922	-1.557024	0.600684
H	-2.851079	0.702534	-0.925803
H	-2.302307	0.821438	0.759291
H	-0.770475	-0.424547	-1.575157
H	0.609249	1.480273	-1.503968
H	-0.725755	2.283303	-0.669151
H	1.696721	1.987558	0.610955
H	0.193857	1.728476	1.518064
H	1.202641	-0.405927	1.861082
H	4.028486	-1.227128	-1.163461
