19

C	-2.864908	-0.397133	-0.282926
C	-1.778783	0.021265	0.716933
C	-0.429047	0.200636	0.073363
O	-0.250335	1.364465	-0.759795
C	0.555167	1.236956	0.423394
C	1.979378	0.772052	0.147609
C	1.784332	-0.634168	-0.405615
O	1.212505	-1.552772	0.538223
C	0.358311	-0.973485	-0.46064
H	-2.957984	0.343615	-1.08269
H	-2.638779	-1.364736	-0.743093
H	-3.835448	-0.486911	0.213176
H	-2.063127	0.963827	1.19679
H	-1.683617	-0.729156	1.511468
H	0.354878	1.973496	1.197409
H	2.473153	1.423031	-0.581472
H	2.583268	0.759861	1.060946
H	2.508947	-1.067629	-1.089183
H	-0.06535	-1.665679	-1.183485
