19

C	1.440904	-0.298254	1.445126
C	0.975061	-0.137126	-0.021554
C	2.122465	0.388502	-0.887064
C	0.344587	-1.455656	-0.549875
C	-1.121813	-1.46909	-0.065477
C	-1.524664	-0.004398	-0.008188
O	-2.628172	0.467961	0.022576
C	-0.207541	0.833054	-0.013101
O	-0.168501	2.03422	-0.010782
H	0.641406	-0.659866	2.100251
H	2.264245	-1.018481	1.493806
H	1.791562	0.658434	1.8425
H	1.814705	0.494762	-1.932054
H	2.445909	1.371109	-0.532895
H	2.978235	-0.293691	-0.852544
H	0.367133	-1.453575	-1.645258
H	0.904246	-2.334357	-0.218539
H	-1.802656	-2.043425	-0.697557
H	-1.205378	-1.880553	0.948738
