19

C	-2.755781	-0.650951	-0.567241
C	-1.518831	-0.033954	0.020373
C	-1.158285	1.239426	-0.151341
C	0.128354	1.774478	0.419202
C	1.371498	1.108754	-0.198241
C	1.594	-0.407749	-0.138421
O	2.65574	-0.858965	-0.476323
O	0.622945	-1.283493	0.216758
C	-0.621017	-0.919057	0.8522
H	-3.409306	-1.057647	0.215197
H	-3.331565	0.076288	-1.145489
H	-2.499877	-1.489301	-1.227445
H	-1.771076	1.904219	-0.755194
H	0.204996	2.851088	0.240669
H	0.146418	1.649105	1.510174
H	1.401252	1.338056	-1.270522
H	2.28518	1.542527	0.219447
H	-1.093787	-1.883457	1.048425
H	-0.401341	-0.456895	1.822072
