19

O	2.492206	0.701823	-0.646419
C	1.615151	0.107733	-0.104958
O	1.328863	-1.22976	-0.189155
C	0.099227	-1.074641	0.617685
C	-1.151648	-1.378235	-0.218926
C	-2.180675	-0.235643	-0.222766
C	-1.522308	1.103624	-0.576962
C	-0.529164	1.522169	0.515749
C	0.46762	0.414592	0.859231
H	0.175992	-1.711166	1.501076
H	-0.81476	-1.555892	-1.245934
H	-1.613741	-2.309266	0.123348
H	-2.976935	-0.475741	-0.934809
H	-2.65977	-0.153449	0.762577
H	-1.00824	1.015545	-1.543421
H	-2.280696	1.884276	-0.695909
H	0.027766	2.418963	0.223522
H	-1.091439	1.783472	1.420472
H	0.884051	0.569166	1.859353
