19

C	-2.65957	-0.029977	0.341151
C	-1.615832	-0.882056	-0.389662
C	-0.199891	-0.427422	-0.167027
C	0.985965	-1.203317	-0.781659
C	2.16604	-0.466078	-0.06315
C	1.331548	0.529294	0.762088
O	0.227959	-0.302434	1.245781
C	0.293728	1.040775	-0.258416
O	-0.089772	2.078224	-0.702527
H	-2.475224	-0.035501	1.418406
H	-2.626692	1.007661	-0.002324
H	-3.666455	-0.417227	0.162086
H	-1.69583	-1.932906	-0.082568
H	-1.798263	-0.864727	-1.471507
H	0.931613	-2.262499	-0.518355
H	1.019558	-1.116713	-1.871269
H	2.739441	-1.130431	0.586457
H	2.854729	0.03085	-0.751807
H	1.799703	1.147861	1.524903
