19

C	-3.103212	-0.776327	-0.025074
O	-2.195679	0.225251	-0.424785
C	-1.035876	0.29677	0.386511
C	0.005099	-0.823634	0.103463
C	1.337893	-0.094175	-0.077047
C	2.549389	-0.706056	-0.637227
O	2.444925	-0.469923	0.767343
C	1.007493	1.352345	-0.168549
C	-0.28375	1.568361	0.072769
H	-3.427084	-0.637339	1.018772
H	-3.975794	-0.701996	-0.678563
H	-2.679199	-1.787497	-0.11987
H	-1.347844	0.290046	1.445669
H	0.081712	-1.570294	0.8966
H	-0.285834	-1.328495	-0.823039
H	2.525464	-1.753037	-0.940714
H	3.27853	-0.091639	-1.165835
H	1.758854	2.105055	-0.376082
H	-0.784985	2.528878	0.073514
