19

C	-3.168622	-0.260337	-0.321809
C	-1.666098	-0.106088	-0.479121
C	-1.087516	1.267431	-0.051581
C	0.24643	0.910763	0.581774
C	0.191006	-0.55358	0.805004
O	-1.009791	-1.087042	0.348546
C	1.173154	0.004135	-0.242317
C	2.606846	-0.015044	0.100531
O	3.503746	-0.227009	-0.679355
H	-3.693608	0.44608	-0.972431
H	-3.48042	-1.272596	-0.592704
H	-3.467881	-0.071956	0.713678
H	-1.391353	-0.304039	-1.524794
H	-1.008679	1.951802	-0.90062
H	-1.727636	1.738282	0.703083
H	0.699401	1.588848	1.296052
H	0.573896	-1.064494	1.680391
H	0.952567	-0.163658	-1.290824
H	2.820861	0.18045	1.179764
