19

C	2.649614	0.556071	-0.065386
C	1.239253	0.065956	-0.036045
O	0.743395	-0.515086	1.179082
C	0.654241	-1.292744	-0.025877
C	-0.58517	-0.803591	-0.814916
O	-1.842242	-0.798199	-0.195864
C	-1.957339	0.371266	0.625364
C	-1.028462	1.450861	0.014097
C	0.00844	0.642845	-0.7781
H	3.311798	-0.154687	0.436077
H	2.992384	0.691107	-1.096377
H	2.736928	1.521789	0.445738
H	1.122689	-2.271346	-0.011045
H	-0.668053	-1.272209	-1.799584
H	-3.011831	0.665293	0.620678
H	-1.656797	0.140904	1.651629
H	-1.588444	2.101606	-0.663494
H	-0.582441	2.076739	0.791176
H	0.251079	1.063095	-1.755363
