19

C	-2.999898	-0.598884	0.115565
C	-1.885208	0.375514	-0.268182
C	-0.542663	0.026007	0.367507
O	-0.070329	-1.236608	-0.109254
C	1.286235	-1.14249	-0.46437
C	2.251815	-0.764415	0.60271
C	1.75689	0.292672	-0.399908
C	0.553134	1.057106	0.027988
O	0.403424	2.253211	0.053733
H	-3.940888	-0.326853	-0.371661
H	-2.743808	-1.619189	-0.183283
H	-3.170791	-0.598297	1.197906
H	-1.756284	0.394239	-1.356808
H	-2.128845	1.397962	0.040704
H	-0.657646	-0.012524	1.463163
H	1.557463	-1.82189	-1.26356
H	1.908396	-0.71246	1.630156
H	3.287956	-1.059949	0.482744
H	2.457849	0.753078	-1.083051
