19

O	1.927668	-1.450043	0.640102
C	1.385938	-0.621518	-0.390272
C	1.898147	0.856803	-0.36034
C	0.71961	1.751623	0.138032
C	-0.444505	0.808753	0.053966
C	-0.098961	-0.437248	-0.259782
C	-1.307242	-1.318345	-0.294409
O	-2.394255	-0.439753	0.036381
C	-1.923797	0.895311	0.258135
H	1.589169	-1.12036	1.480308
H	1.688304	-1.12543	-1.314064
H	2.788995	0.927575	0.268937
H	2.191462	1.162627	-1.368669
H	0.868773	2.123285	1.160562
H	0.592605	2.641242	-0.489554
H	-1.486003	-1.76879	-1.283055
H	-1.261561	-2.14198	0.433709
H	-2.415828	1.585281	-0.445784
H	-2.198371	1.22265	1.273767
