19

C	1.22127	1.608532	-1.5e-05
C	0.793425	0.146176	-7.7e-05
C	-0.281434	-0.209587	-1.094201
C	-1.344432	-0.137203	-6e-06
C	-2.619512	0.580688	6.5e-05
O	-2.55815	-0.855132	-1.5e-05
C	-0.281404	-0.209636	1.094199
C	1.973123	-0.794017	-4.6e-05
O	3.129926	-0.46038	7.3e-05
H	1.827874	1.834977	-0.881298
H	0.348986	2.269185	-0.000589
H	1.826857	1.835213	0.881909
H	-0.355959	0.47638	-1.940977
H	-0.170418	-1.232499	-1.469784
H	-2.98953	1.030372	0.920709
H	-2.989573	1.030472	-0.920513
H	-0.355876	0.476387	1.940923
H	-0.170335	-1.232551	1.469729
H	1.687545	-1.873553	-8.6e-05
