19

C	2.356679	-1.209251	-0.166538
C	1.570709	0.070165	-0.410019
O	1.35688	0.818082	0.776061
C	0.061504	0.486855	1.237778
C	-0.72817	0.292041	-0.078841
C	-1.252175	1.62155	-0.641561
O	0.288472	-0.237007	-0.947994
C	-1.804901	-0.687159	0.058568
C	-2.709528	-1.465677	0.195626
H	2.461834	-1.763334	-1.103433
H	3.352893	-0.968556	0.215129
H	1.839741	-1.846265	0.556368
H	2.108141	0.729685	-1.105186
H	0.056278	-0.43687	1.831196
H	-0.312721	1.312136	1.846736
H	-1.607538	1.476037	-1.663915
H	-2.078287	2.00106	-0.033373
H	-0.444186	2.358376	-0.646217
H	-3.503683	-2.162001	0.308089
