19

C	-2.380874	-1.244965	0.176534
C	-1.086583	-0.518242	0.541697
C	0.158654	-0.958753	-0.247999
C	0.257007	0.446164	-0.937195
C	-0.973469	0.84965	-0.196469
O	-1.724832	1.782995	-0.275977
C	1.337153	-0.105898	0.019611
C	1.684992	0.538628	1.342969
O	2.459913	-0.578675	-0.676822
H	-2.505424	-1.310427	-0.909439
H	-2.387487	-2.261483	0.581949
H	-3.241084	-0.704899	0.58106
H	-0.968172	-0.486439	1.629525
H	0.271219	-1.915397	-0.742348
H	0.543439	0.717896	-1.94579
H	2.343016	1.400604	1.179795
H	0.804216	0.900999	1.876093
H	2.214104	-0.176187	1.981234
H	3.064242	0.161262	-0.804579
