19

C	-2.905025	-0.493639	-0.267092
C	-1.454337	-0.92897	-0.285933
C	-0.649755	-1.062904	0.960115
C	-0.269519	0.024707	-0.051142
C	0.990231	-0.168775	-0.891961
C	2.240717	-0.055885	-0.039733
O	2.959792	-0.988512	0.218497
C	-0.550306	1.423806	0.347486
O	0.130573	2.369682	0.024169
H	-3.1773	0.040034	-1.183431
H	-3.551271	-1.37445	-0.189656
H	-3.137736	0.153466	0.582158
H	-1.231529	-1.656227	-1.062355
H	-1.100099	-0.735094	1.892478
H	0.054396	-1.881058	1.064439
H	0.992823	-1.155475	-1.361965
H	1.017869	0.606042	-1.666735
H	2.442322	0.959364	0.361254
H	-1.444429	1.563998	0.992041
