19

C	2.871536	0.34562	-0.062147
C	1.841424	-0.656016	-0.604078
C	0.45498	-0.395215	-0.100583
O	0.123428	-0.770823	1.237385
C	-0.658797	-1.349426	0.163541
C	-1.663069	-0.266454	-0.205954
O	-2.844905	-0.237708	-0.380484
C	-0.514213	0.762933	-0.454567
C	-0.485116	2.044294	0.368205
H	2.636096	1.368342	-0.372699
H	2.896605	0.321828	1.031099
H	3.872571	0.105918	-0.431448
H	1.827191	-0.623451	-1.700391
H	2.125869	-1.674078	-0.316334
H	-0.709886	-2.430906	0.109438
H	-0.501472	0.978301	-1.531278
H	0.355701	2.685461	0.085727
H	-1.40778	2.611394	0.211506
H	-0.40355	1.811021	1.432679
