19

C	-2.420486	0.33748	0.663343
C	-1.680569	1.029183	-0.53527
C	-0.54937	-0.006105	-0.375999
O	-1.160432	-1.296163	-0.537251
C	-1.255609	-0.657249	0.74572
C	0.893166	0.137005	-0.72769
C	1.84818	-0.917283	-0.128119
O	2.490617	0.07044	0.705632
C	1.713074	1.135294	0.12818
H	-2.498174	0.986195	1.538866
H	-3.393854	-0.110245	0.45096
H	-2.182911	1.01181	-1.505222
H	-1.371783	2.051298	-0.302043
H	-0.884819	-1.21251	1.600141
H	0.997587	0.280765	-1.807192
H	1.371595	-1.712588	0.45472
H	2.546967	-1.368861	-0.842492
H	1.148744	1.692838	0.886146
H	2.334855	1.837132	-0.441921
