19

O	-2.929171	-0.80551	-0.050441
C	-2.048104	-0.096972	0.36246
C	-1.212425	0.828524	-0.502291
C	0.281797	0.659139	-0.261967
C	1.141886	1.851904	-0.210822
O	0.744399	1.181778	0.991862
C	0.850099	-0.676568	-0.652401
C	0.854663	-1.814605	0.343533
C	2.149281	-1.161872	-0.070645
H	-1.795549	-0.058358	1.445147
H	-1.467206	0.651789	-1.551661
H	-1.495792	1.857132	-0.244024
H	2.195807	1.757219	-0.464212
H	0.710644	2.841348	-0.355731
H	0.643134	-0.946301	-1.684523
H	0.501774	-1.604396	1.346949
H	0.627684	-2.810909	-0.017464
H	2.629076	-0.525998	0.664483
H	2.825428	-1.708971	-0.717538
