19

C	2.510513	-0.474976	-0.09163
O	1.315764	-1.157338	0.25827
C	0.210846	-0.762919	-0.486281
C	-1.132756	-1.422063	-0.091175
C	-1.840437	-0.244725	-0.820682
C	-0.69924	0.416617	0.015863
C	-1.137824	-0.53259	1.189136
C	-0.413811	1.872939	0.124517
O	0.665619	2.386005	-0.051238
H	2.404004	0.609132	0.030293
H	3.295014	-0.850108	0.569236
H	2.79422	-0.685688	-1.134035
H	0.439683	-0.738065	-1.561784
H	-1.379688	-2.481218	-0.159257
H	-1.740048	-0.193901	-1.908523
H	-2.860029	-0.027023	-0.497591
H	-0.374863	-0.743921	1.936462
H	-2.114625	-0.326544	1.633294
H	-1.298475	2.494301	0.397158
