19

O	-1.619628	1.834749	0.096624
C	-1.584549	0.653307	-0.093858
C	-2.624841	-0.476063	-0.036373
C	-1.433929	-1.479633	0.050557
C	-0.428397	-0.34101	-0.326081
C	0.840359	-0.128948	0.476939
C	1.74003	1.047125	0.027797
O	2.811566	0.149577	-0.333927
C	2.06588	-0.999731	0.109016
H	-3.334289	-0.436036	0.793613
H	-3.189553	-0.551051	-0.971524
H	-1.275618	-1.845049	1.068283
H	-1.470607	-2.331963	-0.628316
H	-0.191675	-0.371755	-1.398466
H	0.609896	-0.120662	1.545775
H	1.372846	1.622359	-0.82998
H	2.035674	1.74415	0.820633
H	1.906566	-1.725785	-0.699412
H	2.55394	-1.50909	0.949838
