19

C	2.305822	0.426805	0.999843
C	1.518524	0.171907	-0.289503
O	1.751488	-1.1488	-0.784956
C	0.040768	0.298685	-0.081604
C	-0.737966	1.581109	-0.199668
C	-1.081065	0.427055	-1.105944
C	-1.868594	-0.679803	-0.337703
O	-2.084786	-0.264383	1.020963
C	-0.806982	-0.803414	0.649339
H	2.131228	1.442921	1.365863
H	2.006602	-0.279677	1.780301
H	3.382865	0.312076	0.828847
H	1.824627	0.916444	-1.043861
H	2.702035	-1.300262	-0.788576
H	-1.420757	1.880472	0.585225
H	-0.204647	2.391883	-0.687072
H	-0.996645	0.468294	-2.183641
H	-2.552826	-1.407152	-0.756231
H	-0.429142	-1.653599	1.202531
