19

C	-2.558071	-0.741016	0.361996
C	-1.415535	-0.831378	-0.650514
C	-0.152307	-0.092525	-0.215551
O	0.866315	-0.314987	-1.177011
C	2.11296	-0.239457	-0.491275
C	1.736718	-0.389779	1.005712
O	0.340456	-0.660741	0.983687
C	-0.372343	1.363946	-0.041725
C	-0.538367	2.546464	0.096539
H	-3.427858	-1.298666	0.003469
H	-2.256441	-1.159102	1.3259
H	-2.863768	0.296948	0.522366
H	-1.115746	-1.871438	-0.811143
H	-1.718474	-0.421581	-1.619159
H	2.747795	-1.050402	-0.858723
H	2.610303	0.718011	-0.686833
H	2.234102	-1.227854	1.499143
H	1.946507	0.531103	1.563774
H	-0.688913	3.591277	0.21671
