19

C	-1.389183	1.79273	0.08775
C	-0.320697	0.741333	0.005146
O	0.838009	1.175087	-0.695739
C	1.959212	0.481106	-0.140933
C	1.343478	-0.737694	0.545687
C	0.506627	-1.555021	-0.496003
C	-0.704715	-0.717641	-0.104439
O	-2.025471	-1.067923	-0.299611
C	0.028995	-0.171005	1.144901
H	-1.025075	2.666788	0.635896
H	-1.679767	2.115993	-0.916621
H	-2.277519	1.399039	0.585335
H	2.643514	0.220943	-0.955671
H	2.493139	1.123119	0.576556
H	2.017442	-1.300239	1.190244
H	0.833652	-1.52897	-1.54131
H	0.387262	-2.595842	-0.177297
H	-2.182031	-1.916557	0.130699
H	-0.253226	-0.044432	2.182325
