19

C	1.498197	1.606934	-0.64558
C	1.129208	0.691053	0.536335
C	-0.330186	0.862038	1.009203
C	-1.111068	-0.161804	0.191261
C	-2.56864	-0.186997	0.078086
O	-1.764542	0.327199	-0.990252
C	-0.205274	-1.363973	0.008379
C	1.212654	-0.778861	0.081803
O	2.228473	-1.365763	-0.184517
H	2.491483	1.353883	-1.025348
H	0.77717	1.504866	-1.462751
H	1.500872	2.65421	-0.328785
H	1.852495	0.845227	1.342608
H	-0.419193	0.62281	2.075647
H	-0.722657	1.869983	0.854799
H	-3.08094	-1.125042	-0.133327
H	-3.164796	0.552895	0.611953
H	-0.317987	-2.079832	0.833156
H	-0.377235	-1.900822	-0.926727
