19

O	1.722004	1.330981	-0.411762
C	1.013928	0.243114	0.0949
C	1.628122	-1.129356	0.179453
C	0.520194	-0.853227	-0.818154
C	-0.915611	-1.055343	-0.331366
C	-1.757904	0.14573	-0.827634
C	-1.2387	1.285405	0.106518
C	-0.218141	0.51004	0.974628
O	-0.812198	-0.78971	1.079681
H	2.345523	1.619833	0.263533
H	2.620276	-1.21165	-0.250873
H	1.430782	-1.759508	1.038923
H	0.739784	-0.837767	-1.878746
H	-1.353693	-2.042889	-0.480386
H	-1.595277	0.35645	-1.887703
H	-2.823499	-0.042318	-0.67688
H	-0.762381	2.103231	-0.437079
H	-2.041111	1.69648	0.722854
H	-0.03019	0.909792	1.972922
