19

C	3.117832	0.460506	0.62642
C	2.042106	-0.207607	-0.208093
O	2.07502	-1.386919	-0.478406
C	0.881717	0.669122	-0.672376
C	-0.30776	0.557236	0.291412
C	-1.651956	1.186647	-0.199292
C	-2.329369	-0.16979	0.06964
O	-3.467847	-0.53591	0.070382
C	-0.990749	-0.845381	0.397399
H	2.673688	1.021031	1.457079
H	3.816345	-0.284388	1.008876
H	3.660105	1.189004	0.011648
H	1.191281	1.717114	-0.754543
H	0.577428	0.318255	-1.664179
H	-0.029335	0.941088	1.277164
H	-2.050918	2.031693	0.368122
H	-1.657368	1.451627	-1.262524
H	-0.948696	-1.355801	1.363152
H	-0.660835	-1.551392	-0.371265
