19

O	2.571632	-0.761885	0.247044
C	1.332838	-0.416993	-0.372258
C	1.250356	1.054381	-0.703551
C	0.263296	1.671292	-0.057305
C	-0.567567	0.724111	0.778397
O	-1.924296	0.644077	0.329069
C	-1.990006	-0.389196	-0.644826
C	-1.054636	-1.481962	-0.113364
C	0.090775	-0.671857	0.532339
H	2.723154	-0.127175	0.956493
H	1.307909	-1.042081	-1.272357
H	1.967962	1.523138	-1.368969
H	0.023764	2.72728	-0.121093
H	-0.616373	1.029663	1.829185
H	-3.034869	-0.698079	-0.731543
H	-1.652884	-0.027409	-1.629046
H	-1.574073	-2.070676	0.648355
H	-0.708883	-2.167957	-0.891151
H	0.435268	-1.142891	1.454641
