19

C	1.004354	2.164886	-0.121781
C	0.162469	0.981115	0.348699
C	-1.336447	1.077254	0.024737
C	-1.842359	-0.365934	-0.024158
O	-2.991065	-0.718639	-0.047143
C	-0.623356	-1.299161	-0.043592
C	0.586843	-0.382117	-0.287527
C	1.856318	-0.905268	0.33844
O	2.920536	-1.005339	-0.213522
H	0.692318	3.090537	0.3717
H	2.066192	2.009514	0.093408
H	0.901913	2.310016	-1.203057
H	0.269882	0.880923	1.438987
H	-1.921337	1.677871	0.725413
H	-1.486702	1.510472	-0.97434
H	-0.560909	-1.775732	0.945667
H	-0.747425	-2.100327	-0.775211
H	0.767765	-0.244044	-1.358683
H	1.735602	-1.192051	1.412521
