19

C	0.649458	-0.347831	1.721489
C	0.597082	-0.061586	0.208619
C	-0.134638	1.271755	-0.085024
O	-1.50723	1.176976	0.241664
C	-2.135573	0.164434	-0.531837
C	-1.475111	-1.180917	-0.264129
O	-0.07453	-1.119233	-0.502067
C	1.951799	0.009788	-0.340166
C	3.067027	0.1221	-0.77212
H	-0.341819	-0.244518	2.167795
H	1.023718	-1.359506	1.893107
H	1.320535	0.361454	2.212737
H	0.286034	2.079716	0.518869
H	-0.005724	1.515546	-1.150099
H	-3.190484	0.149463	-0.242406
H	-2.06439	0.410621	-1.603689
H	-1.687407	-1.500052	0.766631
H	-1.85999	-1.947597	-0.94375
H	4.053341	0.206473	-1.156963
