19

C	-2.950627	-0.469384	-0.420385
C	-1.626045	-0.365609	0.335521
O	-0.532984	-0.714256	-0.53272
C	0.408977	0.346471	-0.618368
C	-0.150245	1.434743	0.264383
C	-1.284543	1.020475	0.815394
C	1.819494	-0.064774	-0.147697
C	1.928436	-1.320509	0.686178
O	2.763182	0.632381	-0.436414
H	-3.792224	-0.263434	0.249408
H	-2.978007	0.245911	-1.247442
H	-3.073055	-1.477634	-0.825566
H	-1.64249	-1.08208	1.173084
H	0.517785	0.678998	-1.6615
H	0.352434	2.382564	0.400768
H	-1.913584	1.575083	1.500188
H	1.285315	-1.241544	1.569583
H	1.564454	-2.180007	0.115502
H	2.96511	-1.471343	0.98889
