19

C	-2.342012	-1.051234	0.296347
C	-1.5532	0.19192	-0.077603
O	-2.098547	1.229554	-0.381569
C	-0.052805	0.083571	-0.035447
C	0.729776	0.040857	1.334323
C	1.892395	0.408384	0.383463
C	0.884798	1.26991	-0.412234
O	2.038776	-0.770829	-0.427864
C	0.667695	-1.072243	-0.760443
H	-1.958422	-1.501471	1.217966
H	-3.396003	-0.796265	0.412752
H	-2.242288	-1.805872	-0.49315
H	0.43327	0.850192	2.00291
H	0.795977	-0.912672	1.863417
H	2.870632	0.748311	0.717719
H	0.593229	2.194964	0.084583
H	1.098208	1.440398	-1.469284
H	0.526817	-1.048571	-1.847382
H	0.396863	-2.065804	-0.384508
