19

C	2.080431	-1.336913	-0.718524
C	1.207804	-0.314658	-0.017063
C	0.751087	-0.556102	1.409282
C	-0.248819	-0.714566	0.308564
C	-1.394045	0.226309	0.155818
C	-2.778765	-0.263119	0.194332
O	-2.164272	0.082783	-1.046318
C	1.454105	1.103183	-0.400938
O	1.040817	2.072278	0.193345
H	1.965826	-1.278564	-1.806543
H	3.139867	-1.185913	-0.482799
H	1.81627	-2.352613	-0.411703
H	1.122238	-1.444447	1.908253
H	0.671399	0.330627	2.029423
H	-0.484387	-1.73011	0.001037
H	-1.201638	1.256328	0.445675
H	-2.969852	-1.325892	0.342086
H	-3.576134	0.39994	0.527568
H	2.073266	1.225352	-1.31805
