19

C	1.795166	-1.589062	-0.162842
C	0.803124	-0.451394	-0.106414
C	0.736617	0.551408	-1.300649
C	0.789859	1.753656	-0.307203
C	0.851942	0.762103	0.875275
O	-0.450881	0.450376	1.410755
C	-0.576411	-0.712768	0.588834
C	-1.789709	-0.745472	-0.305305
O	-2.548674	0.170381	-0.484681
H	1.876276	-2.100703	0.802254
H	1.500952	-2.333086	-0.913037
H	2.79157	-1.2261	-0.437095
H	1.620966	0.479024	-1.938671
H	-0.148098	0.494925	-1.938004
H	1.67771	2.381568	-0.414973
H	-0.099396	2.385447	-0.279849
H	1.598134	0.904098	1.661828
H	-0.56824	-1.638283	1.188204
H	-1.916961	-1.723769	-0.829421
