19

C	0.028482	2.216845	-0.381008
C	0.422689	1.031846	0.486188
C	-0.613582	0.052199	1.096663
O	0.435646	-0.963594	1.150985
C	0.924005	-0.331203	-0.091158
C	2.362446	-0.613816	-0.417161
C	-0.184085	-0.773913	-1.070892
C	-1.375858	-0.435467	-0.146924
O	-2.554801	-0.523069	-0.344886
H	-0.706112	1.956195	-1.148348
H	-0.408458	3.011184	0.232707
H	0.90613	2.636535	-0.883988
H	1.110125	1.331047	1.282797
H	-1.160863	0.216053	2.022738
H	2.661434	-0.072585	-1.320771
H	3.012918	-0.30552	0.406185
H	2.514408	-1.682985	-0.596694
H	-0.231586	-0.230039	-2.018191
H	-0.129348	-1.845522	-1.279486
