19

O	2.001323	0.01842	-1.321144
C	1.252188	-0.045086	-0.392396
C	0.561093	-1.208036	0.349766
C	0.516775	-0.259394	1.589857
C	0.733872	0.969793	0.650556
C	-0.559097	1.62868	0.139653
O	-1.306292	0.824472	-0.759002
C	-1.823345	-0.381288	-0.218626
C	-0.819109	-1.543405	-0.247328
H	1.165323	-2.115255	0.433772
H	-0.397216	-0.264826	2.186791
H	1.370353	-0.415467	2.252855
H	1.435538	1.738086	0.985834
H	-1.186393	1.932276	0.994041
H	-0.302949	2.525376	-0.431377
H	-2.191852	-0.208833	0.80415
H	-2.691234	-0.642596	-0.832884
H	-1.259086	-2.385348	0.301495
H	-0.677001	-1.874133	-1.282397
