19

O	-1.949363	-1.444586	-0.686919
C	-1.865591	-0.513592	0.386222
C	-2.091045	0.884984	-0.232325
C	-0.69494	1.427205	-0.399187
C	0.213949	0.703571	0.258179
C	1.69992	0.931715	0.307046
C	2.400892	-0.126286	-0.534601
O	3.065283	-1.02604	-0.091129
C	-0.436612	-0.455475	0.984883
H	-1.741652	-2.317961	-0.339529
H	-2.61708	-0.749279	1.152077
H	-2.639805	0.788239	-1.174755
H	-2.692753	1.525867	0.425935
H	-0.477471	2.324346	-0.969367
H	1.942286	1.918325	-0.105485
H	2.086621	0.862397	1.32925
H	2.21675	-0.025364	-1.62827
H	0.095055	-1.405177	0.84518
H	-0.458754	-0.269114	2.068047
