19

C	2.370311	0.052223	-0.956189
C	1.522302	-0.268383	0.279692
C	0.831041	1.004722	0.844227
C	-0.568356	0.980143	0.239202
O	-1.261365	1.922495	-0.076408
C	-0.939564	-0.42537	-0.075478
O	-1.987702	-0.597476	-0.956692
C	-0.662177	-1.460247	0.996664
C	0.366099	-1.213481	-0.072251
H	3.192755	0.729289	-0.704924
H	2.80168	-0.858995	-1.383124
H	1.765753	0.531584	-1.734676
H	2.164458	-0.726506	1.041487
H	0.750792	0.983744	1.937378
H	1.34414	1.931235	0.57841
H	-2.337201	0.295912	-1.101211
H	-0.473117	-1.161841	2.023577
H	-1.26491	-2.355269	0.887438
H	0.53025	-1.986953	-0.814742
