19

C	2.334397	-1.140266	0.187096
O	1.531517	-0.385492	-0.710704
C	0.514334	0.307871	-0.104379
C	0.722811	1.504269	0.808781
C	-0.092296	1.638669	-0.452124
O	-1.428942	1.162808	-0.245425
C	-0.922422	-0.161457	0.007718
C	-1.614124	-1.133173	0.900609
C	-1.543239	-1.36585	-0.606645
H	1.760863	-1.940564	0.674019
H	3.1337	-1.588607	-0.406594
H	2.773124	-0.501066	0.964354
H	0.240069	1.57408	1.779397
H	1.718948	1.932615	0.741822
H	0.082291	2.347236	-1.251635
H	-1.019503	-1.758407	1.55881
H	-2.572525	-0.829607	1.307919
H	-0.881977	-2.13743	-0.986637
H	-2.452362	-1.217148	-1.178751
