19

O	-2.583515	-0.491229	-0.038372
C	-1.489662	0.384402	-0.221884
C	-0.550992	0.375529	1.009107
C	0.478748	1.43297	0.566139
C	0.914252	0.733809	-0.756723
O	2.046072	-0.094492	-0.484544
C	1.586935	-1.0835	0.453045
C	0.067254	-0.954058	0.421774
C	-0.267134	-0.25379	-0.931572
H	-2.96585	-0.675955	-0.902145
H	-1.830909	1.368495	-0.574759
H	-0.957544	0.430729	2.018625
H	0.01807	2.4142	0.413057
H	1.333794	1.552356	1.235057
H	1.169233	1.385112	-1.592418
H	1.930897	-2.069488	0.11868
H	2.010401	-0.895754	1.449823
H	-0.504951	-1.846972	0.657179
H	-0.339999	-0.78912	-1.879083
