19

O	-1.034782	2.11106	0.086338
C	-0.210847	1.026723	0.445101
C	1.09586	0.822623	-0.388469
C	2.223714	0.096403	0.363052
O	1.676467	-1.203461	0.039535
C	0.627168	-0.615085	-0.761751
C	-0.674216	-0.376522	-0.003476
C	-1.516856	-1.376117	0.724524
C	-2.059462	-0.69677	-0.506411
H	-1.321238	1.97448	-0.823751
H	-0.032491	1.13812	1.519545
H	1.348516	1.609535	-1.097912
H	3.222856	0.225094	-0.071443
H	2.279714	0.270668	1.445531
H	0.582179	-1.049668	-1.765009
H	-1.227709	-2.419567	0.656777
H	-1.924872	-1.084205	1.686941
H	-2.148704	-1.274932	-1.420838
H	-2.823902	0.06216	-0.37224
