19

C	-2.583092	0.61602	-0.127175
O	-1.843569	-0.596696	-0.109454
C	-0.491661	-0.423028	0.019703
C	0.296281	0.086494	1.212763
C	1.268482	1.194368	0.807963
C	1.197527	1.21103	-0.748819
C	0.576224	-0.139847	-1.07965
O	1.442617	-1.183845	-0.513217
C	0.555374	-1.298415	0.599316
H	-3.639275	0.341993	-0.168408
H	-2.395792	1.21036	0.777001
H	-2.340474	1.227258	-1.007519
H	-0.179501	0.079232	2.187657
H	0.979013	2.156569	1.239905
H	2.283909	0.97481	1.149935
H	0.547785	2.016998	-1.111851
H	2.179349	1.333681	-1.214144
H	0.330045	-0.343886	-2.123047
H	0.52775	-2.232418	1.147233
