19

C	-2.498419	-0.457886	-0.190188
O	-1.429794	-0.464164	0.745173
C	-0.185692	-0.354772	0.165638
C	0.507827	-1.502906	-0.623944
C	1.811166	-0.871682	-0.124223
C	1.637391	0.652286	-0.125668
C	1.128619	-0.1842	1.031544
C	0.220847	0.941732	-0.619664
O	-0.364342	2.117784	-0.112092
H	-2.418572	-1.293379	-0.89982
H	-3.420612	-0.570212	0.383602
H	-2.532203	0.486716	-0.746299
H	0.331867	-2.472904	-0.150585
H	0.328421	-1.570749	-1.703184
H	2.800171	-1.31093	-0.130493
H	2.489342	1.320056	-0.142741
H	1.32676	-0.184997	2.092754
H	0.042378	0.961262	-1.70005
H	-0.324897	2.070743	0.851192
