19

C	0.110618	2.182824	0.010809
C	-0.303085	0.732042	0.021011
C	-1.790344	0.388861	0.035136
O	-1.754168	-1.052546	0.011645
C	-0.359873	-1.308856	-0.006623
C	0.301211	-0.335819	1.02059
C	1.773729	-0.38576	0.641157
O	1.679611	-0.339691	-0.802275
C	0.274654	-0.305474	-1.007472
H	-0.16478	2.685368	0.944861
H	1.191387	2.28067	-0.124993
H	-0.37464	2.721648	-0.810921
H	-2.310594	0.738775	0.936384
H	-2.325181	0.768104	-0.845382
H	-0.159177	-2.378948	-0.029257
H	0.028767	-0.352235	2.076176
H	2.357658	0.467568	1.006265
H	2.273101	-1.310518	0.95533
H	0.038447	-0.289433	-2.071068
