19

C	-0.804562	1.726473	-0.542674
C	-0.882635	0.279386	-0.060141
C	-2.18773	0.035315	0.694945
C	-0.424983	-0.838605	-1.010809
O	-0.251662	-1.775176	0.169245
C	0.385101	-0.455218	0.542786
C	1.576138	0.340163	1.105984
O	1.845307	0.735554	-0.298587
C	1.105251	-0.474658	-0.740941
H	-1.721444	1.971255	-1.090913
H	-0.751603	2.411718	0.311026
H	0.051061	1.926537	-1.18471
H	-3.045904	0.216512	0.037948
H	-2.248048	-0.985405	1.071354
H	-2.274917	0.730628	1.537307
H	-0.918031	-1.295785	-1.874489
H	1.360269	1.206542	1.737126
H	2.401084	-0.25463	1.511894
H	1.798886	-1.287536	-0.956704
