19

C	0.958838	-1.562432	-0.721095
C	1.37755	-0.385255	0.1865
C	2.762448	0.15571	-0.17396
C	0.333632	0.720085	0.128387
O	0.536921	1.813327	-0.337308
C	-1.082608	0.420726	0.706568
O	-0.999352	-0.643665	1.644713
C	-2.017506	0.132004	-0.379699
C	-2.804728	-0.135256	-1.248207
H	1.703817	-2.360785	-0.651359
H	-0.008425	-1.971619	-0.424055
H	0.898145	-1.24702	-1.767718
H	1.375648	-0.757648	1.217852
H	3.056694	0.973246	0.489391
H	3.509555	-0.639891	-0.095444
H	2.775614	0.543785	-1.19621
H	-1.390316	1.355884	1.19734
H	-1.891707	-0.968047	1.804016
H	-3.495331	-0.358694	-2.02402
