19

O	-0.279385	1.975438	0.049727
C	-0.581356	0.826647	-0.18479
C	0.407624	-0.173985	-0.773154
C	1.482709	-0.562381	0.231117
C	2.88354	-0.865129	-0.240747
C	2.603878	0.39255	0.544734
C	-1.979957	0.361915	0.1291
C	-2.233655	-0.943975	0.773827
O	-2.506039	-0.749986	-0.603753
H	-0.119426	-1.055898	-1.147672
H	0.878029	0.322895	-1.628507
H	1.124617	-1.163597	1.063118
H	3.425957	-1.668932	0.244604
H	3.090463	-0.769241	-1.301583
H	2.958567	0.450416	1.567599
H	2.61085	1.34045	0.01945
H	-2.677815	1.176835	0.312287
H	-1.401714	-1.608386	1.000479
H	-3.102825	-1.042012	1.421906
