19

C	-1.905243	1.5e-05	-1.095871
O	-2.32053	-7e-06	0.285943
C	-0.941492	-1e-06	-0.003134
C	0.035781	-1.02111	0.56629
C	1.16246	-1.294918	-0.442521
C	1.998085	9e-06	-0.621196
C	1.162456	1.294928	-0.442496
C	0.035779	1.021097	0.566315
O	0.486554	-1.7e-05	1.512645
H	-2.113114	-0.919336	-1.64213
H	-2.113113	0.919382	-1.642101
H	-0.368051	-1.906203	1.063742
H	1.809375	-2.104347	-0.089885
H	0.721844	-1.630131	-1.389181
H	2.772907	2e-06	0.148286
H	2.511853	2e-05	-1.586551
H	1.809369	2.104356	-0.089856
H	0.721832	1.63015	-1.389149
H	-0.368051	1.906178	1.063789
