19

C	-2.34785	0.02358	0.461249
C	-1.183612	0.459636	-0.436202
C	-0.519598	-0.711892	-1.226895
C	0.742835	-1.13123	-0.480133
O	0.40716	-1.274153	0.940716
C	0.819827	0.080216	1.138401
C	1.631816	0.131963	-0.148309
O	1.053357	1.3618	-0.585257
C	-0.054888	1.132317	0.348287
H	-3.160782	-0.393975	-0.141892
H	-2.028682	-0.738669	1.175109
H	-2.754969	0.875435	1.017987
H	-1.554766	1.199464	-1.15439
H	-1.202761	-1.562459	-1.313674
H	-0.252419	-0.39405	-2.239274
H	1.23191	-2.027693	-0.867949
H	1.140642	0.310918	2.154513
H	2.713069	0.069513	-0.27297
H	-0.346555	2.052811	0.860479
