19

C	3.757269	-0.09704	-0.414446
C	2.332977	-0.012393	-0.126882
C	1.156017	0.048627	0.124338
C	-0.272064	0.132533	0.394036
C	-0.639151	1.371526	1.204101
O	-0.779342	-1.079669	1.037404
C	-1.761415	-1.294904	0.005675
C	-1.203913	-0.152054	-0.847069
O	-2.170178	0.804435	-1.189454
H	4.327961	0.632508	0.170549
H	4.146903	-1.092644	-0.175257
H	3.962481	0.092098	-1.474006
H	-0.163938	1.315291	2.18685
H	-0.289802	2.279559	0.703088
H	-1.721834	1.435261	1.328714
H	-1.702343	-2.302759	-0.41879
H	-2.784313	-1.102004	0.352688
H	-0.629054	-0.484303	-1.717907
H	-1.768221	1.451089	-1.778051
