19

C	1.438664	-1.1807	1.114074
C	0.988281	-0.221291	8.7e-05
C	2.178222	0.210553	-0.864859
C	-0.161352	-0.854954	-0.835938
C	-1.466142	-0.405539	-0.168596
O	-2.516335	-0.994066	-0.155183
C	-1.164188	0.882605	0.554074
O	-0.417919	1.789579	-0.286491
C	0.304303	0.990173	0.641245
H	1.914676	-2.069422	0.687926
H	2.164739	-0.699594	1.778583
H	0.593273	-1.514658	1.725716
H	2.609203	-0.647175	-1.391771
H	1.866421	0.949098	-1.609109
H	2.9697	0.657068	-0.25258
H	-0.155151	-0.476855	-1.863732
H	-0.116034	-1.944895	-0.882786
H	-1.869373	1.327092	1.248408
H	0.789848	1.530156	1.452213
