19

C	-2.594652	0.771177	0.430416
C	-1.660994	-0.416323	0.4886
C	-1.322315	-1.186698	-0.778226
C	-0.281881	-0.330994	-0.131652
O	0.102295	0.838861	-0.825556
C	1.242077	1.414022	-0.185594
C	1.897398	0.27822	0.572382
O	2.101293	-0.887266	-0.230575
C	0.927705	-0.81917	0.595419
H	-3.6406	0.450138	0.381792
H	-2.481065	1.407544	1.31501
H	-2.380328	1.384013	-0.448751
H	-1.730691	-1.013019	1.39612
H	-1.212752	-2.264926	-0.734778
H	-1.733848	-0.80973	-1.708855
H	1.876909	1.846072	-0.965471
H	0.953774	2.209565	0.519474
H	2.626282	0.469758	1.354944
H	0.84958	-1.553577	1.391496
