19

O	0.440297	2.127293	0.110165
C	1.019431	0.949192	-0.400013
C	1.665869	0.015903	0.633642
C	2.154183	-1.232051	-0.048883
C	0.692082	-1.108339	0.263326
C	0.013813	-0.212401	-0.78253
C	-1.433056	0.127475	-0.52971
C	-2.088727	0.038325	0.786819
O	-2.302778	-0.962294	-0.207922
H	-0.119342	1.886903	0.856553
H	1.677446	1.279966	-1.209699
H	2.039365	0.335605	1.599998
H	2.501909	-1.1928	-1.079514
H	2.711755	-1.918363	0.580282
H	0.177881	-1.824444	0.892186
H	0.102777	-0.575886	-1.814112
H	-1.861895	0.83394	-1.241031
H	-1.525144	-0.288131	1.65968
H	-2.946476	0.674596	1.001797
