19

O	0.274487	2.001963	-0.182706
C	0.155517	0.672857	-0.676109
C	1.232504	-0.2348	-0.065769
O	2.456756	0.266866	0.30257
C	1.018006	-1.66974	-0.37505
C	0.150956	-1.032628	0.701887
C	-0.914386	-0.184169	0.032608
C	-2.259966	-0.599566	-0.483818
C	-2.155277	0.377291	0.6688
H	-0.131748	2.018213	0.691885
H	0.121595	0.748514	-1.768406
H	2.304453	1.208163	0.470177
H	0.583982	-1.998444	-1.318161
H	1.801859	-2.316595	0.008392
H	0.122476	-1.411435	1.716669
H	-2.586806	-0.2117	-1.443079
H	-2.598798	-1.607665	-0.268063
H	-2.40874	1.415601	0.474922
H	-2.422346	0.029252	1.66146
