19

C	-2.778667	0.075238	-0.037094
C	-1.282474	0.22441	0.103406
C	-0.699384	1.424067	0.032357
C	0.769089	1.753281	0.112458
O	1.631562	0.832372	-0.52875
C	1.966879	-0.295027	0.233137
C	0.870932	-1.325418	0.394796
O	0.13248	-1.698777	-0.760661
C	-0.578017	-1.07225	0.333617
H	-3.268805	1.04094	-0.180443
H	-3.028631	-0.565469	-0.891839
H	-3.214843	-0.402024	0.849756
H	-1.344084	2.288946	-0.117066
H	0.938311	2.712679	-0.388154
H	1.077706	1.888456	1.165075
H	2.807818	-0.770235	-0.285901
H	2.319568	-0.00788	1.240211
H	1.191668	-2.16925	1.015526
H	-1.201193	-1.790726	0.872063
