19

C	0.241792	2.264593	0.257984
C	0.016424	0.792057	0.092963
C	0.331989	-0.25533	1.171352
O	-0.521455	-1.393183	0.967024
C	-0.24312	-1.221206	-0.457272
C	-1.023406	0.078218	-0.781618
O	-2.377235	0.118529	-0.436177
C	1.026006	-0.345875	-0.148389
C	2.451716	-0.384657	-0.592791
H	1.099523	2.471353	0.907763
H	0.431199	2.752291	-0.704933
H	-0.636064	2.742317	0.706541
H	0.680515	-0.033363	2.172274
H	-0.327819	-2.142053	-1.0312
H	-0.92611	0.365838	-1.832315
H	-2.434005	-0.354788	0.405932
H	2.923022	-1.342378	-0.345785
H	2.541117	-0.235389	-1.674692
H	3.029734	0.406608	-0.103728
