19

C	2.709681	-1.162469	-0.125591
O	1.686508	-0.341176	-0.643406
C	1.167397	0.597247	0.296375
C	0.080706	-0.00601	1.22397
C	-1.277292	0.330856	0.553374
C	-1.782346	-0.820449	-0.310664
O	-2.915537	-1.224008	-0.324854
C	-0.913366	1.499628	-0.341005
C	0.403449	1.643775	-0.477464
H	2.362113	-1.795809	0.704769
H	3.045656	-1.810042	-0.938943
H	3.564406	-0.567665	0.232262
H	2.005504	1.018825	0.872099
H	0.23247	-1.078383	1.378668
H	0.117497	0.474962	2.205499
H	-2.065435	0.572826	1.272087
H	-0.990607	-1.261543	-0.957264
H	-1.670735	2.097906	-0.834764
H	0.901986	2.37492	-1.10231
