19

C	-1.125922	1.923645	-0.423144
C	-0.098041	0.834743	-0.345476
C	1.326814	0.835753	-0.905494
C	1.530953	-0.473993	-0.108193
O	0.661445	-1.418826	-0.785015
C	-0.448378	-0.695891	-0.243488
C	-1.80933	-1.296825	-0.327133
C	0.325918	-0.038004	0.8415
O	0.103829	0.016899	2.191641
H	-0.719771	2.881711	-0.077021
H	-1.477697	2.069062	-1.451135
H	-1.999649	1.697547	0.196996
H	1.471252	0.757194	-1.987918
H	1.914827	1.665795	-0.500825
H	2.507667	-0.879994	0.146737
H	-2.542762	-0.664612	0.179828
H	-2.119578	-1.413156	-1.371072
H	-1.823525	-2.282727	0.147508
H	0.454958	0.848026	2.532469
