19

C	-2.935167	0.034042	-0.194124
C	-1.439514	0.162591	-0.102282
C	-0.845537	1.237633	0.419185
C	0.646562	1.425221	0.524416
C	1.421473	0.377154	-0.256255
O	2.444767	0.612678	-0.8548
C	0.81186	-1.025808	-0.197544
O	0.814926	-1.47008	1.160676
C	-0.645014	-0.998372	-0.660702
H	-3.256494	-0.123914	-1.232071
H	-3.29171	-0.833154	0.376344
H	-3.441997	0.924802	0.185709
H	-1.456417	2.050693	0.804892
H	0.962387	2.413847	0.175486
H	0.956974	1.35523	1.578138
H	1.409628	-1.690161	-0.834244
H	1.732323	-1.590152	1.428658
H	-0.674563	-0.972628	-1.759219
H	-1.105654	-1.950109	-0.366863
