19

C	3.395099	1.277005	0.060438
C	2.520395	0.040146	0.26031
O	2.795048	-0.956396	-0.722845
C	1.03187	0.362587	0.142246
C	0.148125	-0.883764	0.348232
C	-1.273553	-0.607089	0.226096
C	-2.447448	-0.341186	0.114351
C	-3.855642	-0.074876	-0.002031
O	-4.331791	0.973465	-0.376028
H	3.178244	2.040104	0.814854
H	4.457066	1.019451	0.145267
H	3.22683	1.707541	-0.931608
H	2.70944	-0.370193	1.267948
H	3.728881	-1.182126	-0.670819
H	0.768031	1.128759	0.878144
H	0.835445	0.783153	-0.849976
H	0.435955	-1.6477	-0.382728
H	0.343572	-1.323217	1.3361
H	-4.502603	-0.929255	0.285953
