19

C	2.553311	0.202367	-0.212611
O	1.685868	-0.905108	-0.031192
C	0.370105	-0.567807	0.068292
C	-0.747662	-1.341974	0.681732
C	-1.595199	-1.268901	-0.589745
C	-0.737716	-0.032077	-0.967413
C	-1.124918	1.029348	0.10472
O	-0.509549	2.28971	-0.04537
C	-0.465064	0.120205	1.137116
H	2.500634	0.892612	0.641862
H	3.567701	-0.194149	-0.288387
H	2.315898	0.752289	-1.134139
H	-0.664882	-2.149007	1.398809
H	-1.406456	-2.124708	-1.243194
H	-2.675394	-1.109256	-0.495094
H	-0.590588	0.277546	-2.000128
H	-2.196121	1.233389	0.20517
H	0.443481	2.161064	0.024907
H	-0.221969	0.336443	2.170158
