19

C	2.629486	-0.637575	-0.161508
C	1.282104	-1.252267	0.239603
C	0.125337	-0.291413	0.204992
C	-1.374904	-0.563561	0.472072
O	-2.07314	-1.343155	-0.475174
C	-1.381096	0.931172	0.15229
C	0.005679	1.141604	0.831033
O	0.597319	1.827569	-0.313395
C	-0.235348	0.777853	-0.894122
H	2.598222	-0.245715	-1.181947
H	2.900392	0.192689	0.496065
H	3.423873	-1.388374	-0.11017
H	1.049648	-2.094698	-0.426775
H	1.355513	-1.678255	1.249923
H	-1.639502	-0.84117	1.502393
H	-1.938545	-2.271702	-0.262275
H	-2.209512	1.636809	0.118072
H	0.244124	1.493738	1.834213
H	-0.285173	0.686486	-1.977107
