19

C	-1.699083	0.520576	-0.599916
C	-1.722911	-0.908966	-0.003725
C	-0.311914	-1.120429	0.552298
O	0.5702	-1.396511	-0.545054
C	1.770154	-0.654358	-0.391969
C	1.367002	0.635358	0.305148
O	0.605579	1.522337	-0.543643
C	-0.619921	1.276149	0.201276
C	0.107388	0.255732	1.106275
H	-1.393084	0.504049	-1.648582
H	-2.676782	1.006257	-0.542017
H	-2.443168	-0.968243	0.821002
H	-1.987582	-1.680254	-0.731225
H	-0.25046	-1.928632	1.292982
H	2.505964	-1.19611	0.227007
H	2.197365	-0.486776	-1.384914
H	2.191674	1.151863	0.806263
H	-0.976926	2.201502	0.664314
H	0.08247	0.365358	2.188423
