19

O	1.940179	-1.92303	-0.05852
C	1.56944	-0.547444	-0.031141
C	0.162434	-0.510028	0.546055
C	-0.889711	-1.145017	-0.37984
C	-2.271959	-1.005308	0.189879
C	-1.643536	0.179686	-0.48774
C	-0.625343	0.843639	0.462434
C	0.028676	2.087572	-0.080624
O	1.20776	2.334208	-0.108278
H	2.827868	-1.982759	-0.422835
H	2.254082	0.045764	0.587103
H	1.582161	-0.114388	-1.041318
H	0.195641	-0.946901	1.550367
H	-0.653339	-1.865214	-1.152334
H	-3.059227	-1.498305	-0.371668
H	-2.428661	-1.001488	1.266896
H	-2.08499	0.657938	-1.354701
H	-1.082855	1.164169	1.4126
H	-0.714198	2.83316	-0.453859
