19

O	-3.059198	-0.040491	0.051144
C	-1.705156	-0.011009	-0.373831
C	-1.075031	1.274638	0.154485
C	0.433112	1.288031	-0.126569
C	1.084526	-0.009929	0.389869
O	0.446487	-1.155676	-0.173098
C	-0.927271	-1.218333	0.168465
C	2.507594	-0.074446	0.073053
C	3.681425	-0.085702	-0.180507
H	-3.48875	-0.797649	-0.359866
H	-1.635432	-0.020459	-1.47346
H	-1.565249	2.144827	-0.292513
H	-1.260029	1.32272	1.235654
H	0.625784	1.359333	-1.202656
H	0.912251	2.14927	0.349301
H	0.965834	-0.043685	1.488297
H	-1.303512	-2.154566	-0.257907
H	-1.06392	-1.261136	1.262367
H	4.719526	-0.108818	-0.403366
