19

C	1.931991	-0.298227	-0.015589
C	1.374548	1.016578	0.577567
C	0.428475	1.755908	-0.334707
C	-0.868241	1.515355	-0.550412
C	-1.709431	0.444444	0.02357
O	-1.241316	-0.304792	1.1489
C	-1.343633	-0.993785	-0.088468
C	-0.044555	-1.469616	-0.750973
O	1.080009	-1.419966	0.096722
H	2.221434	-0.141906	-1.06727
H	2.831384	-0.580045	0.541176
H	0.899374	0.772257	1.528857
H	2.233972	1.663256	0.788766
H	0.870958	2.572426	-0.902303
H	-1.399386	2.148443	-1.25863
H	-2.775214	0.673987	0.067262
H	-2.164917	-1.71194	-0.124223
H	-0.178027	-2.521422	-1.029553
H	0.135963	-0.900926	-1.674979
