19

C	-3.031063	-0.534271	0.607182
C	-1.96516	-0.112812	-0.404788
O	-1.480574	1.196608	-0.082939
C	-0.060612	1.202225	-0.003896
C	0.352918	-0.240455	-0.172688
C	-0.730833	-0.973003	-0.421119
C	1.748859	-0.701956	-0.103574
C	2.736886	-0.133747	0.835191
O	2.759899	0.223544	-0.541953
H	-3.841966	0.199316	0.623094
H	-3.453805	-1.508412	0.339278
H	-2.601433	-0.601134	1.610982
H	-2.427574	-0.083956	-1.407148
H	0.371874	1.836692	-0.791929
H	0.25019	1.628971	0.961622
H	-0.756492	-2.038011	-0.617917
H	1.915234	-1.727402	-0.433526
H	2.442014	0.656868	1.522658
H	3.561386	-0.760039	1.17417
