19

C	1.706408	-0.417161	1.449355
C	1.173192	-0.375897	-0.000899
C	1.753406	-1.540022	-0.830614
C	1.567591	0.976055	-0.663581
O	1.052989	2.099695	0.011824
C	-0.288522	-0.45323	0.021739
C	-1.498486	-0.451644	0.029424
C	-2.937658	-0.489073	0.045207
O	-3.646784	0.486294	-0.057631
H	1.37211	-1.319826	1.967109
H	2.801201	-0.412304	1.432975
H	1.365269	0.458992	2.003443
H	1.364151	-1.532248	-1.852726
H	2.843993	-1.454808	-0.876055
H	1.504203	-2.503329	-0.378
H	2.658455	1.069578	-0.631501
H	1.260798	0.958461	-1.720246
H	0.090575	2.058631	-0.044008
H	-3.365982	-1.50522	0.161675
