19

C	-1.416772	1.859106	-0.292721
C	-0.220828	1.067133	0.145872
C	-0.198943	0.231347	1.369896
C	-0.048433	-0.501923	0.04981
C	-1.067802	-1.437158	-0.429439
O	-2.218039	-1.460298	-0.044722
C	1.350169	-0.312634	-0.5131
O	2.344485	-0.961172	0.248555
C	1.207794	1.244824	-0.384848
H	-1.448088	2.82858	0.218956
H	-1.395623	2.052413	-1.370621
H	-2.340491	1.321508	-0.06021
H	0.656289	0.241054	2.039294
H	-1.160873	0.057257	1.840366
H	-0.719491	-2.131543	-1.228344
H	1.397082	-0.617604	-1.568412
H	3.203089	-0.757099	-0.136418
H	1.909334	1.716126	0.310832
H	1.256094	1.756892	-1.348926
