19

O	2.65065	0.285176	-0.490142
C	1.766821	-0.249325	0.490629
C	0.322315	0.098242	0.220256
C	-0.12954	1.558652	0.221965
C	-1.645708	1.398184	-0.105503
C	-1.735562	-0.117576	-0.2229
C	-0.813488	-0.786738	0.836642
O	-0.501392	-1.889789	-0.082173
C	-0.45144	-0.67045	-0.903433
H	2.677083	1.239923	-0.375967
H	1.880041	-1.335635	0.445696
H	2.05263	0.078307	1.503242
H	0.042663	2.038854	1.1915
H	0.397094	2.14941	-0.534809
H	-2.289574	1.790729	0.687297
H	-1.929749	1.900809	-1.034866
H	-2.685075	-0.600722	-0.449842
H	-1.013907	-1.034206	1.880784
H	-0.205658	-0.776507	-1.960452
