19

C	1.345373	0.090695	1.331385
C	0.83853	-0.488556	0.006961
C	1.987665	-0.751592	-0.961921
C	-0.125565	-1.704423	0.256952
C	-1.312184	-0.787448	-0.040015
O	-2.490864	-0.838187	0.152071
C	-0.373376	0.303613	-0.608568
C	-0.681138	1.747367	-0.314271
O	0.106494	2.555825	0.10786
H	2.033439	-0.619122	1.803606
H	1.863998	1.038346	1.178043
H	0.525035	0.274856	2.033375
H	2.717532	-1.441325	-0.524049
H	1.630392	-1.194	-1.898552
H	2.512307	0.178184	-1.205727
H	-0.039931	-2.489464	-0.502852
H	-0.110153	-2.169569	1.246217
H	-0.396851	0.197325	-1.70445
H	-1.736631	2.025739	-0.528189
