19

C	2.235084	1.701783	0.212388
C	1.33457	0.4668	0.402886
C	-0.129286	0.775948	0.011801
C	-1.035293	-0.460672	0.024038
O	-0.942301	-1.218798	1.221347
C	-2.502563	-0.098305	-0.155022
O	-2.896477	0.846282	-0.787906
C	1.858758	-0.693847	-0.319564
C	2.270362	-1.660407	-0.906948
H	1.840672	2.546428	0.785374
H	3.254228	1.498997	0.551165
H	2.277275	1.991374	-0.841667
H	1.331583	0.209373	1.46999
H	-0.518144	1.521389	0.713703
H	-0.172342	1.223349	-0.986106
H	-0.777209	-1.092085	-0.842642
H	-0.174917	-1.794536	1.141504
H	-3.1928	-0.808286	0.351767
H	2.652087	-2.50367	-1.428089
