19

C	2.932171	0.027929	-0.346778
C	1.578107	0.140074	0.338701
C	0.810314	-1.210201	0.604554
C	-0.425911	-0.552067	0.023948
O	-1.545998	-1.146842	-0.605587
C	-2.400203	-0.044428	-0.172524
C	-1.259672	0.560464	0.681511
O	-0.493492	1.615968	0.070043
C	0.383656	0.639796	-0.544583
H	3.655984	-0.489427	0.292092
H	2.856572	-0.536318	-1.283299
H	3.337846	1.017172	-0.584287
H	1.650634	0.751736	1.241908
H	1.184698	-2.008628	-0.04519
H	0.756543	-1.586119	1.629505
H	-2.72129	0.589163	-1.00558
H	-3.269248	-0.418081	0.379372
H	-1.436879	0.712249	1.748212
H	0.590292	0.845844	-1.597349
