19

C	-2.92789	-0.339747	0.248311
O	-1.982932	0.657333	-0.094653
C	-0.667421	0.311027	0.183464
O	-0.292586	-0.79122	-0.644221
C	0.697554	-1.632467	-0.102047
C	2.019913	-0.994971	0.216637
C	2.364336	0.301594	0.185429
C	1.527517	1.469159	-0.082651
C	0.190864	1.514699	-0.084797
H	-2.868904	-0.591146	1.318686
H	-3.915423	0.074127	0.03474
H	-2.779477	-1.252437	-0.338348
H	-0.566781	-0.013292	1.239897
H	0.328896	-2.160254	0.797935
H	0.855181	-2.408309	-0.862904
H	2.789437	-1.718661	0.48206
H	3.40494	0.532855	0.402976
H	2.068624	2.394668	-0.263288
H	-0.341577	2.437784	-0.286836
