19

O	-2.257163	-1.327688	-0.048648
C	-1.067585	-0.703368	0.338547
C	0.199627	-1.137634	-0.41123
C	1.165889	0.014318	-0.122301
C	2.594644	-0.014677	-0.58037
C	2.274447	-0.168988	0.887921
C	0.331594	1.297019	-0.130844
C	-1.096848	0.804395	0.083676
O	-2.122317	1.431878	-0.018477
H	-2.917205	-0.6197	-0.10184
H	-0.884932	-0.830691	1.423315
H	0.582857	-2.107752	-0.086551
H	-0.030287	-1.204726	-1.48226
H	2.937833	-0.88897	-1.123992
H	3.044601	0.916725	-0.908697
H	2.401265	-1.148342	1.337766
H	2.508021	0.658958	1.549563
H	0.618161	2.026541	0.633207
H	0.364918	1.818048	-1.095906
