19

C	2.790155	-0.075795	-0.064507
C	1.38194	-0.552191	-0.361166
O	0.594223	0.483321	-1.018444
C	-0.316704	0.590306	0.106084
C	-0.534128	1.997469	0.584729
C	0.397803	-0.613672	0.820711
C	-0.829932	-1.527746	0.568686
C	-1.527506	-0.349525	-0.14754
O	-2.594085	-0.201409	-0.665656
H	3.303774	0.188495	-0.993778
H	2.779269	0.805573	0.584201
H	3.362341	-0.866907	0.432911
H	1.408715	-1.462407	-0.975019
H	-1.173993	2.012334	1.472944
H	0.417083	2.481323	0.824314
H	-1.030794	2.5781	-0.199474
H	0.801208	-0.56674	1.830729
H	-0.667256	-2.432002	-0.025106
H	-1.371215	-1.806146	1.479093
