19

C	-0.681663	1.568694	-0.553395
C	-1.402588	0.510038	0.344595
O	-1.800809	-0.699999	-0.262343
C	-0.636566	-1.473071	-0.527326
C	0.421972	-1.111023	0.54874
C	1.780269	-0.742893	-0.058365
O	1.603289	0.557995	-0.612264
C	0.658592	1.272622	0.178816
C	-0.066204	0.24607	1.091264
H	-0.665947	1.345198	-1.621785
H	-1.054733	2.585051	-0.403887
H	-2.252761	0.88808	0.915039
H	-0.928486	-2.52654	-0.506533
H	-0.2418	-1.244413	-1.528374
H	0.496057	-1.879264	1.320602
H	2.566724	-0.741406	0.712672
H	2.097041	-1.408404	-0.868424
H	1.140683	2.129924	0.659026
H	-0.01948	0.365184	2.172551
