19

C	1.022459	1.745672	0.278407
C	0.947642	0.25655	-0.032026
O	2.200034	-0.186975	-0.532232
C	0.311543	-0.761253	0.98448
C	0.045428	-1.671608	-0.251116
C	-0.180266	-0.296732	-0.975259
C	-1.425015	0.175536	-0.239966
O	-2.419205	0.69097	-0.674772
C	-1.091556	-0.179658	1.231069
H	1.384614	2.281338	-0.60387
H	0.060893	2.176407	0.565994
H	1.728958	1.930263	1.097557
H	2.864506	-0.004531	0.141253
H	0.877867	-1.112055	1.848724
H	0.935879	-2.175779	-0.616084
H	-0.803799	-2.35752	-0.198615
H	-0.148389	-0.165158	-2.054507
H	-1.131772	0.701961	1.876002
H	-1.796796	-0.917927	1.626047
