19

O	-2.492318	-0.963293	-0.002303
C	-1.270912	-0.302354	-0.000461
C	-0.076372	-0.675715	-0.931161
C	0.708697	0.192251	0.085025
C	-0.256659	-0.372251	1.187097
C	0.106829	1.604538	-0.139349
C	-1.401696	1.21329	-0.218454
C	2.181694	0.071745	0.275677
O	2.890087	-0.723583	-0.291506
H	-2.330479	-1.908439	0.082744
H	0.20561	-1.729277	-0.868827
H	-0.106353	-0.348119	-1.973453
H	-0.004179	-1.398194	1.467301
H	-0.444806	0.238693	2.074033
H	0.328796	2.284966	0.687843
H	0.474749	2.061093	-1.062058
H	-2.011837	1.680729	0.558544
H	-1.850858	1.440966	-1.18834
H	2.607722	0.78357	1.022438
