19

C	0.814576	2.001208	0.675226
C	1.022209	0.864864	-0.305963
O	0.008203	0.82878	-1.34892
C	-0.549705	-0.411273	-0.868546
C	-1.864903	-0.261967	-0.263478
C	-2.918739	-0.142828	0.306308
C	0.631434	-0.574263	0.159483
C	1.636584	-1.647028	-0.219179
O	0.292353	-0.760025	1.504077
H	0.919366	2.961324	0.16115
H	-0.180845	1.964507	1.125937
H	1.559829	1.951503	1.475332
H	2.021081	0.927017	-0.756178
H	-0.578203	-1.17092	-1.659059
H	-3.869363	-0.038522	0.769573
H	1.203295	-2.640884	-0.074328
H	1.945857	-1.541642	-1.262832
H	2.523301	-1.565104	0.417035
H	-0.5775	-0.369604	1.658999
