19

O	-2.671782	-0.298059	-0.713319
C	-1.636409	-0.101638	-0.146549
C	-1.04189	1.22803	0.301043
C	0.396882	0.909821	0.723167
C	1.490885	1.199167	-0.34387
C	1.803432	-0.158241	-1.005591
C	1.623311	-1.159721	0.145956
C	0.387205	-0.643451	0.881781
O	-0.798857	-1.111675	0.208343
H	-1.125685	1.959276	-0.505827
H	-1.649479	1.59946	1.13293
H	0.644826	1.397472	1.66731
H	1.177218	1.962181	-1.061801
H	2.389498	1.58047	0.152875
H	1.081107	-0.375255	-1.800121
H	2.79955	-0.192774	-1.453591
H	1.499216	-2.196909	-0.173737
H	2.482418	-1.116436	0.826591
H	0.325953	-0.983408	1.91956
