19

O	2.454769	-1.224199	0.429396
C	1.910377	-0.136938	-0.269206
C	1.481146	1.177302	0.508924
C	0.175682	1.203181	-0.358366
C	-1.271962	1.189848	0.172451
C	-1.858163	-0.17318	-0.334458
O	-2.804052	-0.750009	0.551858
C	-0.610973	-1.03534	-0.540572
C	0.456739	-0.251883	-0.629049
H	3.407071	-1.102009	0.489794
H	2.529186	0.137685	-1.136987
H	1.270922	0.927859	1.552046
H	2.156419	2.035372	0.45375
H	0.296148	1.859655	-1.226908
H	-1.276979	1.162952	1.269256
H	-1.874504	2.048128	-0.136937
H	-2.421693	-0.034777	-1.266177
H	-2.338181	-0.961656	1.3692
H	-0.651204	-2.117482	-0.515422
