19

C	2.157398	-2.3e-05	-0.54446
C	1.177515	0.976317	0.145617
O	1.036356	2.8e-05	1.227721
C	1.1775	-0.976313	0.145659
C	-0.140551	-0.785142	-0.636285
C	-1.433428	-1.145415	0.116252
O	-2.272905	4e-06	0.034102
C	-1.433418	1.145416	0.11625
C	-0.14055	0.785132	-0.6363
H	2.231441	-4.7e-05	-1.635214
H	3.141007	-2.6e-05	-0.073159
H	1.457558	1.973943	0.484339
H	1.457527	-1.97393	0.484423
H	-0.104954	-1.223316	-1.635827
H	-1.978308	-1.982714	-0.327858
H	-1.207716	-1.385525	1.166015
H	-1.978298	1.982717	-0.327855
H	-1.207695	1.385525	1.166011
H	-0.104969	1.223287	-1.63585
