19

C	2.311863	-0.090948	-0.653476
C	0.941753	0.053599	0.007679
O	1.11976	-0.158118	1.401414
C	0.372666	1.47658	-0.217785
C	-1.097977	1.593073	0.092638
C	-1.950181	0.576597	-0.043483
C	-1.47871	-0.743868	-0.526206
O	-0.865526	-1.63358	0.445053
C	-0.034609	-1.012515	-0.543622
H	3.001265	0.661231	-0.259498
H	2.727013	-1.079419	-0.437708
H	2.244653	0.035553	-1.739171
H	0.329088	-0.62713	1.703519
H	0.947007	2.157415	0.418334
H	0.548681	1.799494	-1.254669
H	-1.462244	2.561324	0.426749
H	-3.006723	0.689959	0.17938
H	-2.124338	-1.273479	-1.225506
H	0.372894	-1.706468	-1.277634
