19

C	-1.466028	-0.915089	1.274646
C	-1.429483	-0.603553	-0.224622
O	-2.312381	0.44805	-0.566345
C	-0.004657	-0.281415	-0.756634
C	1.063686	-1.325984	-0.566716
C	2.154407	-0.850851	0.038612
C	2.033716	0.611378	0.378573
C	0.601689	0.94292	-0.054919
O	0.019504	1.981584	0.158311
H	-2.491958	-1.14515	1.57262
H	-0.828705	-1.770451	1.520997
H	-1.130247	-0.055138	1.864126
H	-1.790377	-1.483086	-0.772709
H	-1.897329	1.268178	-0.260815
H	-0.140545	-0.030587	-1.81891
H	0.938481	-2.348112	-0.906657
H	3.044376	-1.428081	0.260289
H	2.175309	0.844931	1.440874
H	2.744033	1.245992	-0.169183
