19

O	3.137869	-0.068467	0.298256
C	2.242175	-0.717903	-0.176758
C	0.836396	-0.206005	-0.419914
C	0.651009	1.26208	-0.026252
C	-0.784142	1.73102	-0.294274
C	-1.820909	0.844031	0.425908
C	-1.60803	-0.629159	0.112382
O	-2.491642	-1.358006	-0.271034
C	-0.1778	-1.124374	0.312621
H	2.39808	-1.782291	-0.469932
H	0.655143	-0.324919	-1.500879
H	0.896111	1.378635	1.036684
H	1.367828	1.883168	-0.571189
H	-0.908765	2.771391	0.022531
H	-0.982485	1.708592	-1.373654
H	-1.707031	0.972207	1.511918
H	-2.846437	1.112004	0.162438
H	0.041797	-1.10406	1.389481
H	-0.116251	-2.161081	-0.027447
