19

C	2.673674	-0.468203	-0.653681
C	1.600513	0.469836	-0.151045
C	1.146802	0.442456	1.276355
C	0.216486	-0.048639	0.176592
C	-0.259923	-1.479985	0.016903
C	-1.790218	-1.310347	0.091346
O	-2.068927	0.051402	-0.27825
C	-0.954143	0.823602	-0.155931
O	-0.974751	2.013978	-0.304582
H	2.574516	-0.64954	-1.729327
H	3.667828	-0.043635	-0.479234
H	2.634509	-1.436909	-0.145333
H	1.58666	1.453231	-0.613771
H	1.561985	-0.316809	1.932326
H	0.889951	1.380387	1.755711
H	0.032941	-1.885125	-0.957713
H	0.107926	-2.161913	0.78657
H	-2.336121	-1.959672	-0.595904
H	-2.169923	-1.475381	1.106088
