19

C	1.885102	-0.33927	-0.663271
O	1.837426	0.647009	0.426446
C	0.39556	0.501892	0.425476
C	-0.749298	1.506462	0.414523
C	-1.773498	0.609226	-0.423646
C	-0.965169	-0.691207	-0.82562
O	-0.845304	-1.514841	0.330014
C	-0.071123	-0.731493	1.256209
C	0.400194	-0.032172	-0.995872
H	2.622775	-0.057555	-1.41774
H	2.095236	-1.345884	-0.287562
H	-1.146061	1.773871	1.397496
H	-0.489016	2.421853	-0.122287
H	-2.643895	0.317969	0.168142
H	-2.129098	1.145559	-1.307146
H	-1.420928	-1.276765	-1.624085
H	-0.690392	-0.437679	2.112904
H	0.772614	-1.323042	1.623244
H	0.361175	0.783696	-1.721445
