19

O	0.909522	1.365063	0.67977
C	1.179511	0.361109	-0.306097
C	0.073978	-0.719012	-0.365156
C	-1.311926	-0.110669	-0.201565
O	-1.504044	1.08967	-0.901375
C	-2.055447	-0.270739	1.103841
C	-2.510862	-1.003997	-0.144198
C	2.502977	-0.23545	-0.124194
C	3.574562	-0.749261	0.057015
H	0.947671	0.947135	1.547594
H	1.161159	0.914582	-1.250455
H	0.163333	-1.230381	-1.331064
H	0.245888	-1.47208	0.411669
H	-0.985952	1.752598	-0.424587
H	-1.601703	-0.847158	1.90385
H	-2.65551	0.571184	1.430253
H	-2.361187	-2.077005	-0.199318
H	-3.404987	-0.640724	-0.636946
H	4.53071	-1.187901	0.203972
