19

O	2.937311	-0.591681	-0.394777
C	1.835328	-0.540471	0.504278
C	0.947141	0.662943	0.234674
C	-0.157594	0.687977	-0.871616
O	-0.751625	1.854984	-0.174049
C	-0.448821	0.867391	0.894473
C	-1.053152	-0.215445	-0.011825
C	-1.33751	-1.676325	0.092792
C	-2.452226	-0.675831	-0.194816
H	2.585789	-0.711409	-1.282607
H	1.26411	-1.476898	0.490727
H	2.278797	-0.443706	1.501678
H	1.531051	1.586847	0.231626
H	-0.064222	0.74819	-1.957356
H	-0.700458	1.140054	1.920279
H	-1.020787	-2.329729	-0.714399
H	-1.313177	-2.143173	1.072589
H	-2.875662	-0.662014	-1.193839
H	-3.169925	-0.476015	0.59414
