19

C	-0.786406	1.977581	-0.503269
C	-0.617768	0.585488	0.060914
C	-1.879581	-0.122683	0.604764
O	-1.615541	-1.323924	-0.153122
C	-0.440579	-0.750561	-0.750992
C	0.813473	-1.086698	0.066403
O	2.00613	-0.560472	-0.545569
C	1.984341	0.609091	0.30521
C	0.629458	0.216882	0.914146
H	0.098901	2.310762	-1.052658
H	-1.636965	2.01862	-1.191783
H	-0.972555	2.703438	0.298115
H	-1.912772	-0.308839	1.686088
H	-2.824164	0.343636	0.29443
H	-0.399836	-0.854048	-1.83851
H	0.924188	-2.10346	0.451455
H	2.811748	0.587928	1.026589
H	2.040384	1.542729	-0.266397
H	0.528732	0.259808	1.999146
