19

C	1.97995	0.019055	-0.053093
C	0.924599	0.147321	1.081431
C	0.043761	-1.118651	1.078065
C	-0.795303	-1.053386	-0.211829
O	-1.834774	-0.112237	-0.05761
C	-1.329535	1.201694	0.206031
C	0.189422	1.197556	0.17885
C	0.836743	0.426911	-1.009404
O	0.022452	-0.711516	-1.319977
H	2.75309	0.790063	0.009937
H	2.436458	-0.95957	-0.223061
H	1.253235	0.442946	2.079755
H	0.657496	-2.025302	1.105135
H	-0.641555	-1.147248	1.930466
H	-1.281488	-1.99727	-0.463218
H	-1.72936	1.881948	-0.557893
H	-1.705499	1.543124	1.181668
H	0.60302	2.202236	0.287666
H	1.055361	0.936092	-1.950057
