19

C	-0.862695	1.936516	0.022008
C	-0.016869	0.719578	-0.371798
C	1.470436	0.980883	-0.024565
C	2.356791	-0.147067	-0.286482
C	3.065014	-1.097387	-0.492725
C	-0.514483	-0.574021	0.300252
O	-0.469202	-0.521421	1.720138
C	-1.94103	-0.934752	-0.090037
O	-2.415122	-0.746836	-1.180395
H	-0.885201	2.051758	1.110085
H	-0.451076	2.853436	-0.41134
H	-1.889821	1.83136	-0.335217
H	-0.100831	0.553171	-1.451288
H	1.814705	1.856245	-0.588043
H	1.540059	1.258042	1.035475
H	3.706561	-1.921728	-0.6846
H	0.103775	-1.408284	-0.069377
H	0.403238	-0.80896	2.003521
H	-2.509811	-1.42148	0.732941
