19

C	-1.850944	-0.561585	-0.438601
C	-1.456184	0.917039	-0.675441
C	-0.392406	1.197228	0.435985
O	-0.376244	0.013587	1.254003
C	-0.683681	-1.060358	0.410568
O	0.380778	-1.369401	-0.479275
C	1.678893	-0.950262	-0.07347
C	1.91579	0.531715	-0.27638
C	0.996363	1.476407	-0.0855
H	-2.777519	-0.637977	0.137174
H	-1.959659	-1.134132	-1.360648
H	-1.019246	1.056845	-1.665355
H	-2.313837	1.586993	-0.586785
H	-0.70567	2.016961	1.090173
H	-0.896785	-1.920409	1.057364
H	1.878887	-1.234815	0.969887
H	2.370718	-1.518006	-0.703744
H	2.907354	0.813024	-0.623035
H	1.232498	2.516931	-0.295825
