19

O	-2.374335	-1.359934	-0.163518
C	-2.048121	-0.225233	-0.397174
C	-1.141675	0.616932	0.499313
C	-0.023417	-0.203726	1.157628
C	1.094519	-0.03199	0.141972
C	2.444197	-0.670253	0.259204
C	1.473163	-1.150678	-0.797394
C	0.891818	1.381274	-0.369559
O	-0.519082	1.620156	-0.305353
H	-2.39083	0.318254	-1.305521
H	-1.789691	1.110099	1.239074
H	0.251433	0.227874	2.125962
H	-0.334117	-1.239423	1.308451
H	3.309999	-0.101689	-0.065769
H	2.633194	-1.313621	1.112203
H	1.68501	-0.901699	-1.832317
H	1.000496	-2.116859	-0.656988
H	1.41218	2.115074	0.264854
H	1.226763	1.522255	-1.402914
