19

O	2.437374	-1.097381	0.300958
C	1.714439	-0.312389	-0.642228
C	0.503194	0.359947	-0.069772
C	0.559206	1.566908	0.854852
C	-0.197338	1.654707	-0.431301
O	-1.503387	1.080574	-0.301903
C	-0.906653	-0.195421	-0.013481
C	-1.566512	-1.185729	0.884371
C	-1.450794	-1.446786	-0.615508
H	1.857998	-1.801182	0.608633
H	2.423412	0.446538	-0.989314
H	1.426527	-0.912775	-1.51927
H	0.014669	1.569811	1.794366
H	1.522174	2.068527	0.873546
H	-0.03827	2.372975	-1.226879
H	-0.954469	-1.766933	1.566872
H	-2.547345	-0.925949	1.267308
H	-0.757371	-2.208553	-0.958308
H	-2.352472	-1.355427	-1.210988
