19

O	-2.380779	0.038505	-0.463727
C	-1.22641	-0.708939	-0.187358
C	-0.684178	-0.680442	1.30211
C	0.611935	0.014748	0.798901
C	1.863313	-0.78966	0.338892
C	1.32576	-0.752457	-1.145977
C	0.083916	0.013027	-0.621227
O	0.074649	1.442306	-0.729307
C	0.598191	1.548598	0.635603
H	-3.134719	-0.427767	-0.087933
H	-1.295132	-1.729113	-0.595188
H	-1.296573	-0.062042	1.965011
H	-0.544026	-1.662591	1.761933
H	2.823407	-0.292751	0.501635
H	1.92436	-1.793577	0.766944
H	1.92802	-0.159452	-1.837004
H	1.127768	-1.728284	-1.598088
H	1.576038	2.046705	0.653226
H	-0.09527	2.093138	1.288072
