19

O	-2.930352	0.770544	-0.043505
C	-2.271003	-0.486837	-0.10452
C	-0.782211	-0.378108	-0.346221
C	0.166017	-1.358264	0.327682
C	1.499129	-1.491341	-0.337449
C	2.184025	-0.347561	-0.293003
C	1.438818	0.741699	0.465971
O	1.353807	1.977964	-0.232149
C	0.096131	0.078208	0.79576
H	-2.809041	1.210633	-0.890726
H	-2.45273	-0.956557	0.868231
H	-2.726942	-1.136833	-0.86806
H	-0.503719	-0.082882	-1.357791
H	-0.249879	-2.179562	0.90126
H	1.822266	-2.405617	-0.823187
H	3.147199	-0.156493	-0.751776
H	1.967113	1.000534	1.392092
H	0.837801	1.820632	-1.030489
H	-0.405143	0.351304	1.716364
