19

C	-1.854092	-1.230722	-0.530689
C	-0.680008	-0.346562	-0.106261
C	0.469773	-0.261813	-1.1546
C	1.783969	-0.196553	-0.355471
O	2.159876	1.182844	-0.234625
C	1.389656	-0.796499	0.977232
C	0.066156	-0.860589	1.114888
C	-1.160828	1.071356	0.23042
O	-2.314814	1.399269	0.330291
H	-2.628578	-1.244759	0.240111
H	-2.315215	-0.849578	-1.446715
H	-1.517315	-2.255965	-0.71058
H	0.450022	-1.172227	-1.760577
H	0.386566	0.593139	-1.831385
H	2.59481	-0.749618	-0.850407
H	2.859118	1.246716	0.424481
H	2.115925	-1.085983	1.729991
H	-0.465044	-1.200363	1.998044
H	-0.328536	1.790027	0.388596
