19

C	-2.868999	0.447318	0.220658
C	-1.477353	-0.045396	0.043842
C	-0.275251	0.567599	-0.146235
C	0.018873	2.033475	-0.242346
C	0.702555	-0.495091	-0.243669
C	2.179838	-0.341705	-0.417409
O	2.79023	0.375875	0.656478
C	0.008655	-1.653557	-0.099784
O	-1.31475	-1.406432	0.070719
H	-3.301829	0.095052	1.163942
H	-2.885448	1.539161	0.22504
H	-3.52448	0.102651	-0.587706
H	0.876176	2.293179	0.385425
H	0.274899	2.326831	-1.268224
H	-0.835801	2.640749	0.067601
H	2.643779	-1.331277	-0.54862
H	2.412031	0.243895	-1.313901
H	2.507665	-0.049509	1.473109
H	0.299258	-2.692138	-0.104573
