19

O	-1.820361	-1.56034	0.366852
C	-1.889081	-0.729485	-0.505868
C	-0.849883	0.323507	-0.781705
C	-1.194329	1.630619	0.025358
C	-0.139323	1.198852	1.077292
C	0.45195	0.2069	0.048012
C	1.808042	0.541294	-0.610923
O	2.407038	-0.658789	-0.094329
C	1.140475	-1.110945	0.439117
H	-2.791473	-0.662543	-1.156585
H	-0.745498	0.453764	-1.8645
H	-0.904653	2.525046	-0.530241
H	-2.22664	1.747939	0.36374
H	0.529429	1.971722	1.464265
H	-0.59749	0.671108	1.91794
H	1.798457	0.556568	-1.710887
H	2.310668	1.447669	-0.247971
H	0.773812	-2.004159	-0.077834
H	1.192873	-1.31853	1.514191
