19

C	2.573651	-0.799217	-0.573431
C	1.378023	0.052568	-0.205954
C	1.476011	1.519393	-0.249515
O	1.518126	0.814195	0.998857
C	0.042334	-0.621054	-0.377495
C	-0.547055	-1.425781	0.733033
C	-1.173742	-0.086601	0.364419
C	-2.470649	-0.085836	-0.345157
O	-3.31933	0.764047	-0.239704
H	2.587309	-1.718149	0.021492
H	2.536567	-1.083678	-1.630523
H	3.503302	-0.255301	-0.390839
H	2.412611	1.988961	-0.546066
H	0.580666	2.115673	-0.415177
H	-0.138763	-0.988004	-1.385362
H	-1.095999	-2.328472	0.486077
H	-0.0224	-1.448018	1.681166
H	-1.007554	0.736411	1.049192
H	-2.617545	-0.96619	-1.018587
