19

O	0.147257	2.107648	-0.178312
C	-0.176981	0.761772	0.093247
C	0.973677	0.143571	0.866812
C	2.165121	-0.099762	-0.036375
O	2.699094	-1.170666	-0.180744
C	-1.636464	0.494207	0.355806
C	-1.918736	-0.970315	0.701072
C	-1.222463	-1.412731	-0.629819
C	-0.96728	0.059391	-0.975279
H	-0.464301	2.448678	-0.839426
H	1.264559	0.854646	1.651274
H	0.696191	-0.80011	1.33778
H	2.514277	0.798974	-0.589308
H	-2.297129	1.331486	0.554764
H	-1.495004	-1.343137	1.639073
H	-2.986459	-1.199277	0.695748
H	-0.33354	-2.044426	-0.543474
H	-1.921029	-1.891345	-1.318748
H	-1.049619	0.49186	-1.968018
