19

O	1.692699	1.480707	0.045101
C	0.474581	0.930624	-0.387574
C	0.58123	-0.373062	-1.182893
C	1.385241	-1.242412	-0.142129
C	0.667813	-0.874891	1.228784
C	-0.379199	-0.000466	0.569848
O	-1.67617	0.48507	0.924762
C	-2.108672	0.162842	-0.44459
C	-0.849429	-0.730315	-0.688357
H	1.500605	2.263724	0.570154
H	-0.154829	1.685226	-0.868061
H	0.927419	-0.414678	-2.216191
H	1.305261	-2.30905	-0.366623
H	2.438597	-0.961789	-0.132799
H	0.243262	-1.746493	1.731175
H	1.340123	-0.349023	1.909779
H	-3.046862	-0.397407	-0.425998
H	-2.234195	1.063866	-1.052715
H	-1.081003	-1.7945	-0.626156
