19

C	-2.592576	-1.264317	-0.089579
C	-1.492093	-0.304676	0.33319
C	-1.61043	1.081818	-0.310329
C	-0.336181	1.863917	-0.129225
C	0.799053	1.278074	0.239407
C	0.88273	-0.213593	0.440229
O	-0.249904	-0.909029	-0.03096
C	2.091218	-0.793291	-0.296495
O	3.216913	-0.40508	-0.135277
H	-3.575214	-0.857535	0.167543
H	-2.556993	-1.42889	-1.171024
H	-2.473244	-2.229806	0.408819
H	-1.513122	-0.18042	1.429108
H	-1.846272	0.978578	-1.379188
H	-2.454404	1.621549	0.137653
H	-0.3683	2.93666	-0.299574
H	1.721628	1.826934	0.396602
H	1.050946	-0.427227	1.514636
H	1.828577	-1.614569	-0.997868
