19

O	-4.197422	-0.831654	0.107559
C	-2.789624	-0.69037	0.071535
C	-2.359553	0.785447	-0.05498
C	-0.911065	0.943981	-0.052569
C	0.290306	1.026638	-0.055134
C	1.747032	1.119288	-0.038799
C	2.411998	-0.142957	0.484519
C	3.752453	-0.541826	0.042501
O	2.585494	-1.208274	-0.445386
H	-4.540791	-0.617425	-0.765626
H	-2.417058	-1.097915	1.015687
H	-2.336236	-1.276681	-0.740216
H	-2.778196	1.199664	-0.983202
H	-2.814994	1.349891	0.767687
H	2.128429	1.317871	-1.047838
H	2.059046	1.965027	0.589673
H	2.075544	-0.461888	1.471519
H	4.280602	0.069296	-0.688842
H	4.38979	-1.129624	0.701339
