19

C	2.554503	-0.15978	0.002955
C	1.100857	0.277917	-0.002732
O	0.968297	1.674823	-0.072066
C	0.091142	-0.523413	0.908156
O	0.280791	-1.673992	-0.008204
C	0.096102	-0.505405	-0.902543
C	-1.055636	-0.053392	0.006074
C	-2.026415	1.068656	0.015062
C	-2.506712	-0.378729	-0.003104
H	3.069538	0.241389	0.885651
H	2.632457	-1.246175	0.023418
H	3.066169	0.223989	-0.885701
H	1.674593	2.068244	0.449643
H	0.106513	-0.724041	1.980974
H	0.116116	-0.681226	-1.979209
H	-2.145975	1.637535	0.931288
H	-2.137808	1.659133	-0.888201
H	-2.952268	-0.781051	0.901035
H	-2.945077	-0.75957	-0.919955
