19

C	3.001989	0.557784	-0.157857
C	1.970043	-0.458841	-0.665951
C	0.616138	-0.245667	-0.066642
O	0.395112	-0.6538	1.301525
C	-0.48834	-1.136935	0.275845
C	-1.534306	-0.019649	-0.073997
O	-2.734576	-0.265988	-0.707536
C	-1.322416	1.206715	0.744083
C	-0.378061	0.918606	-0.413639
H	2.696255	1.582752	-0.391511
H	3.115197	0.481045	0.927324
H	3.979264	0.384724	-0.617558
H	1.885676	-0.393035	-1.758335
H	2.295997	-1.477798	-0.429765
H	-0.622805	-2.210055	0.181776
H	-2.553928	-0.678144	-1.559978
H	-2.039827	1.991961	0.527203
H	-0.975827	1.151092	1.768303
H	-0.25456	1.593682	-1.250425
