19

C	-0.083025	2.268667	-0.406583
C	-0.269498	0.823827	-0.056191
C	-1.58784	0.061504	-0.236805
O	-1.292633	-1.336666	-0.397694
C	-0.310116	-1.147898	0.669143
C	-1.000959	0.178693	1.127606
C	0.787993	-0.304144	-0.04921
C	2.013605	-0.010816	0.796463
O	1.210662	-0.80453	-1.289432
H	0.222784	2.375238	-1.453114
H	-1.009422	2.837291	-0.270478
H	0.686483	2.737642	0.216631
H	-2.485133	0.463642	-0.688826
H	-0.10038	-2.053442	1.2355
H	-1.363917	0.557268	2.072163
H	2.61164	-0.919654	0.910683
H	2.640275	0.741572	0.308158
H	1.736664	0.358823	1.787307
H	0.415815	-1.187816	-1.687559
