19

C	2.315591	0.174523	-0.970495
C	1.049046	0.06071	-0.177459
C	0.199405	1.195394	0.349558
C	-1.238699	1.353188	-0.111667
O	-1.953434	0.138978	-0.265853
C	-1.236348	-0.927163	-0.851817
C	0.097468	-1.152844	-0.150784
O	-0.057643	-1.054828	1.294681
C	0.727312	0.136129	1.29412
H	2.90584	1.036336	-0.642133
H	2.938805	-0.720348	-0.859797
H	2.1113	0.307622	-2.040049
H	0.735482	2.139733	0.431157
H	-1.819958	1.942132	0.605934
H	-1.227818	1.910698	-1.065715
H	-1.885137	-1.802795	-0.752578
H	-1.048075	-0.759864	-1.927989
H	0.558818	-2.10436	-0.43649
H	1.336708	0.338024	2.168296
