19

C	-1.06291	1.286107	1.026549
C	-0.494936	0.215089	0.091349
C	0.36154	0.8128	-1.073136
C	1.820184	0.866616	-0.556504
C	1.887795	-0.259578	0.450969
O	1.316627	-1.487933	-0.024843
C	0.526146	-0.653931	0.831641
C	-1.596806	-0.658623	-0.484224
O	-2.775971	-0.499139	-0.296438
H	-1.813466	1.88574	0.506219
H	-1.553351	0.833926	1.893557
H	-0.271355	1.950133	1.386974
H	0.309737	0.15567	-1.945268
H	-0.01742	1.791063	-1.37724
H	2.548518	0.756232	-1.365358
H	2.035228	1.813717	-0.047973
H	2.737492	-0.372199	1.119287
H	0.272691	-1.078526	1.800306
H	-1.219403	-1.490055	-1.120122
