19

C	2.656414	0.299737	-0.198653
C	1.316554	-0.215193	0.321239
C	0.76619	-1.486841	-0.37166
C	-0.743755	-1.323965	-0.332235
O	-1.229718	-0.976208	0.963301
C	-1.117681	0.073763	-0.031002
C	-2.364983	0.793401	-0.44278
C	0.185885	0.816943	0.165379
O	0.313744	2.015471	0.136007
H	2.619398	0.472437	-1.27947
H	2.907019	1.249943	0.279435
H	3.458392	-0.416322	0.003546
H	1.397093	-0.408813	1.398195
H	1.099716	-1.530541	-1.415726
H	1.089152	-2.411616	0.115914
H	-1.395543	-1.967007	-0.919472
H	-2.21524	1.302032	-1.399768
H	-3.198504	0.093579	-0.536822
H	-2.62545	1.555133	0.297976
