19

C	2.777196	0.286291	0.070693
C	1.313643	0.182446	-0.327091
C	0.403894	1.144756	0.457088
C	-1.039498	1.000014	-0.005713
O	-1.768325	1.952819	-0.174092
C	-1.467758	-0.389247	-0.337226
C	-1.39975	-1.513721	0.701357
C	-0.408865	-1.476577	-0.411793
O	0.908472	-1.163178	-0.071077
H	2.898961	0.068596	1.136191
H	3.37685	-0.430093	-0.496904
H	3.155631	1.293375	-0.126064
H	1.210735	0.394141	-1.403695
H	0.485392	0.900158	1.524163
H	0.698032	2.189293	0.325733
H	-2.301515	-0.430451	-1.028786
H	-1.023975	-1.269902	1.688286
H	-2.206466	-2.237201	0.679693
H	-0.488002	-2.198829	-1.221155
