19

O	-2.728546	-0.390757	-0.517421
C	-1.590559	-0.198591	0.285828
C	-1.096841	1.284556	0.253676
C	0.32716	0.734796	0.115112
C	0.922331	-0.047046	1.352179
C	1.096726	-1.120143	0.273323
O	2.060509	-0.4815	-0.62148
C	1.570894	0.894806	-0.733959
C	-0.223221	-0.650534	-0.366385
H	-2.953695	-1.327065	-0.501876
H	-1.757828	-0.573394	1.302644
H	-1.455371	1.755484	-0.666364
H	-1.328405	1.925515	1.107688
H	1.836131	0.345994	1.803476
H	0.184648	-0.277862	2.119756
H	1.426268	-2.146636	0.437297
H	2.333191	1.581818	-0.348854
H	1.361911	1.131103	-1.78266
H	-0.341497	-0.823971	-1.438544
