19

C	0.531805	1.898018	-0.676808
C	-0.179544	0.554807	-0.478353
C	-1.577991	0.753912	0.119619
C	-2.507859	-0.42868	-0.004879
O	-2.222329	-1.487714	-0.506786
C	0.642234	-0.410505	0.421097
O	0.796851	0.102697	1.746545
C	1.93566	-0.746861	-0.177166
C	3.010305	-0.992015	-0.657898
H	0.627242	2.439367	0.271387
H	1.533035	1.754449	-1.092498
H	-0.030488	2.538116	-1.363305
H	-0.285667	0.054965	-1.447659
H	-1.504679	1.010909	1.185928
H	-2.0898	1.608015	-0.347366
H	-3.52732	-0.254717	0.409835
H	0.061482	-1.33094	0.534832
H	1.536987	0.71865	1.737104
H	3.955379	-1.230736	-1.080007
