19

C	-2.677303	-0.244009	-0.081168
C	-1.482972	-0.501764	0.848723
C	-0.155354	-0.255869	0.159785
C	0.321325	-1.236244	-0.946508
O	1.639673	-1.34393	-0.369632
C	1.291894	-0.477454	0.72509
C	1.671531	0.997722	0.452119
C	0.26731	1.192403	-0.157537
O	-0.312834	2.130392	-0.624943
H	-3.621849	-0.409346	0.445071
H	-2.66222	0.783733	-0.452615
H	-2.658256	-0.915052	-0.946997
H	-1.560144	0.145072	1.731537
H	-1.506714	-1.535247	1.217786
H	-0.207007	-2.198223	-0.917834
H	0.337867	-0.866242	-1.977859
H	1.52274	-0.906276	1.702256
H	1.794507	1.601227	1.358793
H	2.527776	1.159936	-0.206552
