19

C	0.407946	2.21156	-0.113994
C	0.458882	0.715119	-0.021124
C	1.377407	-0.096621	-0.967792
C	1.209521	-1.500666	-0.300417
C	0.24389	-1.075049	0.824056
O	0.838875	0.174164	1.2955
C	-0.767326	-0.20591	0.079589
C	-2.18077	0.058415	0.272787
O	-1.672545	-0.572525	-0.930324
H	-0.23957	2.629607	0.661529
H	1.40846	2.639911	0.003443
H	0.022716	2.513422	-1.093332
H	1.027655	-0.068597	-2.003071
H	2.404576	0.273069	-0.929078
H	0.768007	-2.245574	-0.967242
H	2.144335	-1.893012	0.104428
H	-0.014413	-1.778236	1.614549
H	-2.774713	-0.588217	0.91642
H	-2.574985	1.063428	0.132317
