19

C	-3.4313	-0.07153	0.885009
C	-2.800528	-0.335689	-0.473675
O	-1.434128	-0.78648	-0.34406
C	-0.491728	0.169034	-0.235908
O	-0.719718	1.354217	-0.240362
C	0.885365	-0.452032	-0.116641
C	1.984047	0.610851	0.044959
C	3.311686	0.019102	0.150709
C	4.395421	-0.493659	0.235243
H	-3.370771	-0.95887	1.521759
H	-2.930766	0.760272	1.386132
H	-4.486936	0.189109	0.758333
H	-3.307278	-1.149521	-0.997535
H	-2.817355	0.562178	-1.095726
H	0.883883	-1.146109	0.730151
H	1.066596	-1.067689	-1.00409
H	1.944706	1.302678	-0.803545
H	1.770806	1.219953	0.93041
H	5.360106	-0.930357	0.31131
