19

C	2.295417	0.436179	-0.51711
C	0.990273	-0.113649	-0.040589
O	0.997931	-1.126826	0.962992
C	0.351863	-1.435715	-0.296984
C	-1.018572	-0.785951	-0.186563
O	-2.140217	-1.140183	-0.401532
C	-0.379068	0.615315	0.106637
C	-0.704584	1.5598	-1.054973
C	-0.671969	1.240291	1.46685
H	3.024525	-0.368506	-0.64104
H	2.175461	0.95501	-1.472511
H	2.699328	1.152144	0.207199
H	0.695592	-2.313273	-0.832972
H	-0.140394	2.494227	-0.96365
H	-0.468182	1.112493	-2.026534
H	-1.771001	1.802803	-1.052464
H	-0.152685	2.198946	1.579613
H	-1.745279	1.428766	1.57196
H	-0.359236	0.575834	2.275114
