19

O	-2.490533	0.240186	-0.179113
C	-1.504022	-0.703609	-0.465195
C	-0.943864	-1.544598	0.657258
C	-0.094997	-0.482134	-0.000186
C	1.202079	-0.653095	-0.7725
C	2.339397	-0.68729	0.208732
C	1.734455	0.645017	-0.144816
C	0.403855	0.861397	0.583012
O	-0.319879	2.002296	0.117183
H	-2.041235	1.084266	-0.027209
H	-1.641457	-1.192118	-1.429868
H	-1.330779	-1.335911	1.649664
H	-0.702846	-2.585151	0.462566
H	1.297787	-1.012991	-1.790248
H	2.18978	-1.115434	1.196831
H	3.324551	-0.864563	-0.211367
H	2.315917	1.445524	-0.587914
H	0.432688	0.963348	1.671795
H	-0.182531	2.059046	-0.836629
