19

O	3.109872	-1.0814	-0.060414
C	2.510268	0.1837	-0.307813
C	1.139373	0.327911	0.310108
C	0.062604	1.122309	-0.377468
O	-0.758159	1.907823	0.436161
C	-0.051633	-0.380001	-0.300286
C	-1.131309	-0.981497	0.590482
C	-2.469966	-0.784499	0.03502
C	-3.554348	-0.57827	-0.443314
H	3.220715	-1.172146	0.8913
H	3.160955	1.005407	0.030609
H	2.43697	0.261166	-1.397977
H	1.124194	0.414994	1.395155
H	0.304619	1.56248	-1.345407
H	-1.66778	1.778578	0.140176
H	0.128854	-0.926931	-1.221307
H	-0.941929	-2.051548	0.737286
H	-1.090601	-0.517834	1.581853
H	-4.519632	-0.423466	-0.858037
