19

C	1.774653	1.566729	0.31092
C	0.620243	0.653656	0.001105
C	-0.645106	1.156316	-0.758656
C	-1.380293	0.03885	-0.025913
O	-2.740541	-0.089408	0.163265
C	-0.440566	-1.178584	0.022888
C	-0.347795	-0.053914	1.053827
C	0.87519	-0.760997	-0.621364
O	2.010343	-1.428425	-0.111839
H	2.199786	1.976606	-0.612896
H	1.464617	2.408353	0.938809
H	2.572389	1.02352	0.826871
H	-0.968709	2.139645	-0.403608
H	-0.610982	1.148042	-1.855605
H	-3.119299	-0.505393	-0.619304
H	-0.839771	-2.175762	0.165388
H	-0.434998	-0.041565	2.130477
H	0.973427	-0.80541	-1.712147
H	1.867163	-1.557707	0.83376
