19

C	-2.149559	-0.581202	-0.02305
O	-1.885653	0.835176	0.068295
C	-0.790225	-0.060123	0.011825
C	0.252807	-0.133102	1.122445
C	1.051259	1.165796	0.842782
C	1.044183	1.251484	-0.723815
C	0.235391	-0.000524	-1.111834
O	1.033247	-1.163178	-0.849591
C	1.070973	-1.319556	0.588587
H	-2.586521	-1.025967	0.869907
H	-2.583121	-0.911114	-0.965809
H	-0.115792	-0.252345	2.141041
H	0.545324	2.02656	1.286491
H	2.061313	1.118063	1.258456
H	0.552222	2.162871	-1.075077
H	2.044966	1.208534	-1.158575
H	-0.129898	-0.045838	-2.137555
H	0.629161	-2.287876	0.857674
H	2.112625	-1.305514	0.932176
