19

O	-1.025641	1.962935	0.350867
C	-1.115186	0.795269	-0.430488
C	-2.343546	-0.17167	-0.300571
C	-1.360822	-1.332715	-0.114216
C	-0.546561	-1.082728	1.120688
C	-0.161079	-0.373472	-0.156696
C	1.209681	-0.515983	-0.771583
C	2.217047	0.396867	-0.091878
O	3.311903	0.05397	0.272909
H	-1.038264	1.706092	1.27918
H	-1.012224	1.137256	-1.46466
H	-3.005459	0.019425	0.550948
H	-2.946105	-0.216098	-1.209782
H	-1.444313	-2.314072	-0.564064
H	-0.987	-0.555443	1.966087
H	0.135597	-1.874282	1.41464
H	1.583669	-1.543168	-0.719193
H	1.16912	-0.228263	-1.833208
H	1.857678	1.43991	0.058306
