19

C	0.114551	1.531709	1.165755
C	-0.349715	0.564132	0.097018
C	-1.22216	1.076149	-1.035956
C	-1.816823	0.205805	0.035406
O	-2.190549	-1.091907	-0.320345
C	0.584199	-0.604641	-0.219181
O	0.497922	-1.618434	0.796951
C	1.969468	-0.184553	-0.438365
C	3.110401	0.164792	-0.585466
H	0.337377	1.014619	2.107569
H	1.017172	2.066836	0.855146
H	-0.661473	2.272095	1.380484
H	-1.474496	2.130875	-1.052386
H	-1.099792	0.622818	-2.013693
H	-2.467822	0.682391	0.769328
H	-1.749521	-1.688489	0.298881
H	0.216658	-1.105567	-1.118605
H	0.963807	-1.295905	1.576204
H	4.119578	0.462703	-0.731054
