19

C	2.404061	0.738326	-0.304513
C	1.43748	-0.435051	-0.26627
O	0.986728	-0.684062	1.095719
C	-0.411082	-0.66502	0.975959
C	-0.881378	-1.29474	-0.365333
O	-2.005427	-0.363261	-0.440714
C	-0.883261	0.474776	0.015997
C	-1.138845	1.927082	0.265674
C	0.099918	-0.252377	-0.973713
H	1.919788	1.666616	0.010728
H	3.249318	0.550171	0.363526
H	2.794096	0.878333	-1.318156
H	1.948887	-1.340052	-0.623477
H	-0.917519	-0.867489	1.917755
H	-1.050911	-2.333835	-0.645064
H	-1.375133	2.452916	-0.664513
H	-1.983347	2.044219	0.952077
H	-0.261417	2.397365	0.718994
H	0.064475	-0.027642	-2.038716
