19

C	-2.763503	-0.31409	0.149013
O	-1.811409	0.571943	-0.415559
C	-0.500086	0.193847	-0.211891
C	0.155957	-1.03108	-0.853293
C	1.538363	-0.792138	-0.206752
C	1.865843	0.658665	-0.633483
C	0.581299	1.257617	-0.07602
C	0.238907	0.35854	1.10164
O	1.224402	-0.65366	1.193206
H	-2.600699	-0.445873	1.227528
H	-3.746643	0.132337	-0.015387
H	-2.738429	-1.302078	-0.33084
H	-0.286987	-1.977937	-0.532637
H	0.182113	-0.984954	-1.945327
H	2.303829	-1.554084	-0.336693
H	2.764957	1.03897	-0.141292
H	1.968446	0.76476	-1.716848
H	0.337861	2.310957	-0.083979
H	-0.189074	0.683471	2.039015
