19

O	1.180449	1.938907	-0.189088
C	0.172948	0.979664	-0.439032
C	-1.186648	1.277802	0.252331
C	-1.816341	-0.084048	0.45408
O	-1.786519	-0.910708	-0.718504
C	-0.785761	-1.119792	0.295628
C	0.521382	-0.464011	-0.015707
C	1.686683	-1.204155	-0.605713
C	1.732745	-0.765173	0.836067
H	1.277132	2.022467	0.765957
H	0.035308	0.999562	-1.522898
H	-1.013655	1.742178	1.233114
H	-1.806237	1.963448	-0.332003
H	-2.687603	-0.209387	1.092164
H	-0.822322	-2.083897	0.797711
H	1.569879	-2.260551	-0.823164
H	2.310699	-0.663305	-1.309979
H	1.641113	-1.51659	1.613836
H	2.394206	0.058764	1.080067
