19

C	2.650292	-0.207892	-0.130519
C	1.215872	0.189985	0.044003
C	0.707406	1.385072	-0.26246
C	-0.76686	1.679544	-0.108698
C	-1.513938	0.384295	0.234189
C	-1.451299	-0.668986	-0.909225
O	-0.379147	-1.537558	-0.52913
C	0.251355	-0.873338	0.56169
O	-0.804762	-0.282816	1.283082
H	2.734464	-1.069415	-0.805078
H	3.24753	0.608901	-0.544467
H	3.099925	-0.511344	0.823802
H	1.348954	2.180344	-0.63542
H	-0.930793	2.428828	0.678179
H	-1.172517	2.111284	-1.033201
H	-2.531378	0.575239	0.580488
H	-2.367578	-1.263362	-0.976894
H	-1.252433	-0.205687	-1.882731
H	0.738125	-1.623878	1.189828
