19

C	3.483144	-0.038404	-0.022159
C	2.287063	-0.025808	-0.133126
C	0.83321	0.02832	-0.272631
C	0.269211	1.395699	0.167611
C	-1.227556	1.568486	-0.12691
C	-2.106961	0.383902	0.285484
O	-1.815798	-0.754427	-0.524857
C	-0.865165	-1.633193	0.008798
O	0.25749	-0.992215	0.5548
H	4.54055	-0.062796	0.073277
H	0.570055	-0.157543	-1.323802
H	0.462322	1.480928	1.242731
H	0.837922	2.19191	-0.324263
H	-1.589452	2.473747	0.375654
H	-1.377861	1.723821	-1.202295
H	-1.986978	0.1465	1.350951
H	-3.160102	0.623955	0.107363
H	-1.272552	-2.223196	0.84277
H	-0.595128	-2.298201	-0.824337
