19

O	-3.10791	0.753501	-0.446386
C	-2.479945	-0.273651	-0.448965
C	-1.604268	-0.753971	0.698067
C	-0.16624	-0.397231	0.382948
C	0.720893	-1.291187	-0.057307
C	2.147564	-0.930519	-0.370566
O	2.512268	0.364052	0.060377
C	1.520956	1.334034	-0.2348
C	0.230599	1.053187	0.537092
H	-2.456489	-0.933389	-1.346159
H	-1.937464	-0.260507	1.616919
H	-1.713416	-1.838499	0.803368
H	0.443179	-2.33282	-0.202835
H	2.833832	-1.623083	0.131831
H	2.325399	-1.043836	-1.4571
H	1.948379	2.301711	0.040909
H	1.311397	1.350707	-1.317168
H	0.367203	1.28859	1.601427
H	-0.574238	1.706736	0.178076
