19

C	-1.916313	-1.032355	-0.718546
C	-0.69157	-0.42944	-0.053716
C	-1.023141	0.424362	1.20099
O	-0.889444	1.638289	0.432811
C	-0.240123	0.92329	-0.664129
C	1.242673	1.121264	-0.658096
C	2.059078	0.21041	-0.133969
C	1.573296	-1.091046	0.43358
O	0.265981	-1.456805	0.028084
H	-2.706021	-0.282262	-0.813815
H	-1.6602	-1.406475	-1.714081
H	-2.294412	-1.869191	-0.123706
H	-2.026524	0.311611	1.625709
H	-0.279164	0.359886	2.005739
H	-0.692696	1.204215	-1.622217
H	1.62624	2.059691	-1.048969
H	3.13099	0.383576	-0.077503
H	2.222042	-1.913302	0.10939
H	1.644052	-1.058529	1.535612
