19

C	-3.147581	0.627677	0.192778
C	-1.935539	-0.027851	-0.430377
C	-1.481067	-1.39342	0.016694
C	-0.651473	-0.175697	0.355499
C	0.705026	0.033808	-0.313157
C	1.075546	1.5079	-0.276591
O	2.092049	1.945046	0.198093
C	1.764418	-0.828609	0.356757
O	2.294641	-1.769137	-0.173222
H	-3.105423	1.718437	0.100521
H	-4.070062	0.286025	-0.288905
H	-3.221928	0.385985	1.258193
H	-1.808095	0.178165	-1.490616
H	-2.023658	-1.87216	0.824913
H	-1.086665	-2.080504	-0.724142
H	-0.689526	0.154158	1.391355
H	0.635684	-0.273664	-1.364995
H	0.306468	2.179144	-0.720981
H	1.993701	-0.545697	1.406074
