19

C	2.453583	0.860014	0.017835
C	1.14168	0.144998	-0.155076
O	1.194856	-1.127512	-0.833978
C	0.763899	-1.104161	0.533542
C	-0.745588	-1.215442	0.69065
C	-1.282573	0.075138	0.06233
O	-2.518249	0.038627	-0.57915
C	-0.928973	1.367936	0.731548
C	-0.121862	0.895571	-0.46766
H	2.370701	1.641634	0.78002
H	3.240583	0.160767	0.311488
H	2.756816	1.338977	-0.919673
H	1.429738	-1.602123	1.235303
H	-1.122469	-2.090864	0.148864
H	-1.040511	-1.325031	1.740534
H	-2.43414	-0.541153	-1.345015
H	-1.612466	2.190827	0.557203
H	-0.474145	1.350967	1.717784
H	-0.207965	1.442756	-1.400496
