19

O	-2.207318	-1.086216	-0.078196
C	-1.023738	-0.334489	0.001467
C	0.038431	-0.693195	1.086673
C	1.084166	-0.283818	-0.000829
O	2.318463	-0.944376	-0.079336
C	0.03665	-0.710667	-1.060787
C	1.174731	1.232498	-0.012594
C	0.04051	1.931632	-0.008893
C	-1.274985	1.185209	-0.005509
H	-2.80677	-0.780403	0.611714
H	0.035879	-0.145705	2.033116
H	0.053725	-1.772795	1.254419
H	2.857598	-0.665302	0.668812
H	0.032303	-0.18794	-2.019145
H	0.051079	-1.793058	-1.207015
H	2.158092	1.692786	-0.043415
H	0.027428	3.016985	-0.024123
H	-1.875372	1.467607	0.873815
H	-1.877704	1.449553	-0.88509
