19

C	-1.117143	1.647589	-0.050925
C	-0.489202	0.259904	0.054271
C	0.396543	0.013798	1.336999
C	1.720514	-0.32861	0.623644
C	1.864991	0.762082	-0.456399
C	0.651848	-0.035365	-0.97881
O	1.263544	-1.241434	-0.427509
C	-1.550817	-0.819956	-0.056899
O	-2.736931	-0.610025	-0.116447
H	-1.571716	1.79698	-1.035167
H	-1.915208	1.759571	0.687272
H	-0.381591	2.439098	0.11256
H	0.45453	0.901998	1.971513
H	0.047437	-0.824417	1.945602
H	2.553942	-0.707992	1.213939
H	1.756632	1.81325	-0.183846
H	2.743032	0.597328	-1.081095
H	0.383618	-0.10835	-2.033109
H	-1.143984	-1.852451	-0.077307
