19

C	0.867411	1.947315	-0.213413
C	0.940177	0.490258	0.102043
O	2.223078	-0.057336	0.451412
C	1.93196	-1.262288	-0.310028
C	0.524353	-0.776082	-0.615961
C	-0.141332	-0.379692	0.692407
C	-1.56356	0.082063	0.647701
C	-2.630085	-0.690864	-0.006256
O	-2.089866	0.480703	-0.623189
H	1.590976	2.209558	-0.991366
H	-0.133844	2.211388	-0.561659
H	1.095674	2.545962	0.676026
H	2.579824	-1.324309	-1.192043
H	2.041358	-2.172567	0.292256
H	-0.028012	-0.898151	-1.537091
H	0.113193	-0.933357	1.596071
H	-1.859728	0.740048	1.466931
H	-2.38147	-1.630153	-0.497037
H	-3.657204	-0.599609	0.343176
