19

C	2.154801	-0.376803	1.12874
O	2.12462	-0.061583	-0.253152
C	0.88018	0.370785	-0.745824
C	0.293958	1.62918	-0.148908
C	-1.015643	1.520876	0.083759
C	-1.575895	0.162801	-0.267205
C	-2.461125	-0.502565	0.792791
C	-0.292623	-0.634843	-0.568485
O	-0.195115	-1.832229	-0.591971
H	1.520221	-1.240288	1.363962
H	3.191552	-0.625874	1.364563
H	1.843722	0.473716	1.751275
H	1.045781	0.498534	-1.82606
H	0.895414	2.515416	0.017685
H	-1.645067	2.314779	0.47252
H	-2.145414	0.21796	-1.208725
H	-2.691094	-1.52884	0.495921
H	-1.953027	-0.53601	1.761537
H	-3.400033	0.044515	0.9191
