19

O	-2.591343	0.396519	0.0
C	-1.212279	0.648716	-2e-06
C	-0.414995	-0.244687	0.994495
O	-0.58519	-1.318511	2e-06
C	-0.414996	-0.244691	-0.994494
C	1.112583	0.1374	-1.040305
C	1.818065	-0.788844	1e-06
C	1.112584	0.137403	1.040304
C	1.371576	1.270648	-2e-06
H	-2.683565	-0.565449	-1e-06
H	-1.101966	1.730136	-5e-06
H	-0.853585	-0.502946	1.960614
H	-0.853584	-0.502955	-1.960613
H	1.499509	0.22838	-2.05647
H	1.586847	-1.850387	2e-06
H	2.897426	-0.625079	0.0
H	1.499511	0.228385	2.056469
H	0.762834	2.173943	-2e-06
H	2.423603	1.56625	-3e-06
