19

C	2.685134	-0.280586	-8e-06
C	1.191243	-0.570982	-2.6e-05
C	0.359781	0.301449	0.985166
O	0.41453	1.381178	3.4e-05
C	0.359767	0.301514	-0.985161
C	-1.12658	-0.23267	-0.986568
C	-1.945844	0.636527	2.9e-05
C	-1.126569	-0.232733	0.986561
O	-1.192966	-1.311937	-3.7e-05
H	3.163833	-0.718315	0.882956
H	3.163974	-0.718852	-0.882623
H	2.880177	0.79475	-0.000293
H	0.985096	-1.638911	-6.4e-05
H	0.745711	0.599788	1.962668
H	0.745682	0.599913	-1.96265
H	-1.509565	-0.52881	-1.964708
H	-1.826462	1.716454	6.4e-05
H	-2.993011	0.333874	2.6e-05
H	-1.50954	-0.528934	1.964688
