19

C	3.425777	-1.820672	0.036182
C	2.475773	-0.721576	0.028812
C	1.693289	0.197676	0.01392
C	0.758941	1.308029	0.00168
O	1.068755	2.395214	-0.439005
C	-0.620692	1.017948	0.572903
C	-1.386725	-0.038565	-0.23958
C	-2.751742	-0.348717	0.361782
O	-3.366371	-1.336854	-0.449205
H	3.389597	-2.367839	0.984217
H	3.197187	-2.53155	-0.765558
H	4.449572	-1.462856	-0.113664
H	-0.497073	0.664491	1.605513
H	-1.163124	1.967699	0.597333
H	-1.526611	0.30886	-1.269333
H	-0.806894	-0.966055	-0.291416
H	-2.626968	-0.702428	1.399052
H	-3.358519	0.570517	0.403089
H	-4.243962	-1.512465	-0.097748
