19

C	-3.87854	0.479253	0.000458
C	-2.70624	-0.505586	-0.000199
C	-1.364142	0.207979	3e-06
O	-0.34061	-0.79662	-0.000548
C	0.931414	-0.390616	-0.000154
C	2.08473	-1.114178	0.000317
C	3.139981	-0.139591	0.000381
C	2.552949	1.080896	-4e-06
O	1.182093	0.939526	-0.000378
H	-4.83399	-0.052398	-9.5e-05
H	-3.857976	1.125121	0.885034
H	-3.85777	1.126554	-0.883071
H	-2.756867	-1.158519	0.878387
H	-2.75708	-1.157622	-0.879438
H	-1.253146	0.847013	-0.884983
H	-1.252964	0.846227	0.885537
H	2.164774	-2.187824	0.000578
H	4.200955	-0.336016	0.000708
H	2.911286	2.095281	-5.7e-05
