19

C	-2.169704	-1.310267	0.683281
C	-1.785579	0.126859	0.412716
C	-1.736339	0.655786	-1.01506
C	-0.474193	0.47921	-0.239851
C	0.440856	1.601374	0.225623
C	1.670999	0.823512	0.707003
C	1.611461	-0.474471	-0.093912
O	2.468373	-1.290945	-0.261464
O	0.365383	-0.604656	-0.635237
H	-1.806582	-1.639009	1.663108
H	-3.257871	-1.431516	0.672112
H	-1.742347	-1.978556	-0.068151
H	-2.123659	0.840451	1.161232
H	-1.922514	-0.058493	-1.810343
H	-2.077188	1.665309	-1.221528
H	0.703977	2.251036	-0.61652
H	-0.022223	2.219541	0.997066
H	2.627907	1.321823	0.548609
H	1.605444	0.562206	1.769223
