19

O	-3.482975	-0.220692	-0.13362
C	-2.15907	-0.390066	0.347986
C	-1.2387	0.441613	-0.54404
C	0.199568	0.292294	-0.17188
O	0.678754	0.946092	1.021502
C	1.355529	1.1813	-0.224907
C	2.315366	-0.011866	-0.526524
C	2.235412	-1.066569	0.544289
C	1.118138	-0.950669	-0.458335
H	-4.078557	-0.698962	0.450279
H	-2.059127	-0.050491	1.389565
H	-1.85284	-1.448164	0.315354
H	-1.383955	0.129817	-1.585366
H	-1.526696	1.4953	-0.473042
H	1.46316	2.210457	-0.547651
H	3.097054	0.023467	-1.273216
H	2.893327	-1.916423	0.39226
H	2.07387	-0.78345	1.576529
H	0.850074	-1.740971	-1.1473
