19

C	-1.172484	2.012909	-0.064895
C	-0.859326	0.542425	-0.050844
O	-0.615488	-0.041836	1.279813
C	-0.075084	-1.158294	0.500556
C	-1.323797	-1.640283	-0.257842
C	-1.859135	-0.480007	-0.639177
C	0.508437	-0.105951	-0.496434
C	1.780677	0.594241	-0.045917
O	2.912266	-0.266473	-0.113047
H	-1.324847	2.360979	-1.091726
H	-2.088765	2.207845	0.501184
H	-0.364402	2.597154	0.382782
H	0.541906	-1.853212	1.066939
H	-1.637417	-2.65948	-0.428847
H	-2.747007	-0.257045	-1.213287
H	0.573448	-0.416371	-1.545477
H	1.939825	1.506871	-0.643067
H	1.688123	0.89126	1.0011
H	3.049184	-0.501769	-1.036411
