19

C	1.293666	1.959778	-0.27705
C	0.930304	0.509609	-0.150823
C	1.769673	-0.66789	-0.652081
O	1.386297	-1.490995	0.483946
C	0.652445	-0.396103	1.039254
C	-0.460639	-0.012842	0.125974
C	-1.409578	-0.906894	-0.663356
O	-2.539009	-0.111182	-0.228388
C	-1.693714	0.81039	0.490582
H	0.676043	2.583681	0.376387
H	2.341277	2.130887	-0.006467
H	1.149769	2.319612	-1.303002
H	1.496196	-1.123653	-1.611376
H	2.847614	-0.46813	-0.632494
H	0.676724	-0.25184	2.114886
H	-1.295302	-0.886844	-1.755571
H	-1.476344	-1.946987	-0.324378
H	-1.738443	1.822507	0.065114
H	-1.948773	0.861901	1.557429
