19
../xyz/dsC7O2H10nsd_4105.xyz
C          2.84765       -0.49470       -0.46903
C          1.34905       -0.22038       -0.37040
C          0.99020        1.24489       -0.03037
C         -0.43504        1.18888        0.49892
O         -1.42727        0.98309       -0.57264
C         -1.69354       -0.29579       -0.14927
O         -2.46848       -1.06764       -0.61593
C         -0.67801       -0.25832        0.99644
C          0.62343       -1.03134        0.72935
H          3.31057        0.10848       -1.25680
H          3.35394       -0.25761        0.47416
H          3.04461       -1.54696       -0.69835
H          0.88677       -0.46514       -1.33503
H          1.64321        1.61319        0.77232
H          1.09135        1.92752       -0.87867
H         -0.74369        2.02591        1.12561
H         -1.11114       -0.41314        1.98472
H          1.22839       -1.04499        1.64446
H          0.43945       -2.07023        0.44214
