19
../xyz/dsC7O2H10nsd_0238.xyz
C         -0.60000        0.94021        1.10014
C         -1.25270       -0.41882        0.78663
O         -2.01986       -0.07795       -0.41105
C         -0.72055        0.03780       -1.04936
C         -0.26149       -1.15450       -0.18341
O          1.08928       -1.40364        0.05807
C          1.92646       -0.27903        0.32408
C          1.50677        0.99420       -0.41854
C         -0.01266        1.21164       -0.32390
H         -1.37229        1.66404        1.36828
H          0.14251        0.91447        1.89998
H         -1.83080       -0.92793        1.55722
H         -0.74482        0.02860       -2.13903
H         -0.70491       -2.09102       -0.52203
H          1.95392       -0.09230        1.40633
H          2.93462       -0.58449        0.02809
H          2.05670        1.84171        0.00571
H          1.79594        0.92341       -1.47479
H         -0.30127        2.18715       -0.71983
