19
../xyz/dsC7O2H10nsd_5544.xyz
C         -3.13568       -0.51690        0.31679
C         -1.93900        0.43551        0.40900
C         -0.77862        0.03578       -0.50421
C          0.14503       -1.10959       -0.04501
O          1.19450       -1.17647       -1.00337
C          1.34716       -0.23737        0.09098
C          2.58255       -0.28783        0.92452
C          0.47345        0.95166       -0.31003
O          0.61799        2.13808       -0.26456
H         -3.94561       -0.19289        0.97737
H         -3.53065       -0.55511       -0.70395
H         -2.86233       -1.53805        0.60341
H         -2.24591        1.45239        0.14015
H         -1.58604        0.49114        1.44716
H         -1.10948       -0.08395       -1.54043
H         -0.09438       -2.00355        0.51912
H          2.44821        0.29113        1.84309
H          2.82673       -1.32067        1.18613
H          3.43022        0.13916        0.37916
