19
../xyz/dsC7O2H10nsd_3214.xyz
O          2.27946       -1.08943       -0.21962
C          1.21454       -0.51959        0.50420
C          1.04850        1.02857        0.26296
C         -0.29548        1.30723        0.93256
C         -0.71696        0.48836       -0.30869
C         -2.13766       -0.04968       -0.50372
C         -1.65160       -1.23511        0.43490
C         -0.19425       -0.90390       -0.04859
O          0.36813        1.14382       -1.05330
H          2.17566       -0.79802       -1.13409
H          1.40195       -0.73673        1.55879
H          1.93359        1.65835        0.34585
H         -0.48644        0.91385        1.93448
H         -0.60171        2.35028        0.84372
H         -2.97329        0.57327       -0.17706
H         -2.32232       -0.41469       -1.51723
H         -1.83687       -1.02069        1.48891
H         -2.02907       -2.23039        0.19793
H         -0.04481       -1.42561       -0.99968
