19
../xyz/dsC7O2H10nsd_0892.xyz
O         -2.92917       -0.80551       -0.05044
C         -2.04810       -0.09697        0.36246
C         -1.21243        0.82852       -0.50229
C          0.28180        0.65914       -0.26197
C          1.14189        1.85190       -0.21082
O          0.74440        1.18178        0.99186
C          0.85010       -0.67657       -0.65240
C          0.85466       -1.81461        0.34353
C          2.14928       -1.16187       -0.07064
H         -1.79555       -0.05836        1.44515
H         -1.46721        0.65179       -1.55166
H         -1.49579        1.85713       -0.24402
H          2.19581        1.75722       -0.46421
H          0.71064        2.84135       -0.35573
H          0.64313       -0.94630       -1.68452
H          0.50177       -1.60440        1.34695
H          0.62768       -2.81091       -0.01746
H          2.62908       -0.52600        0.66448
H          2.82543       -1.70897       -0.71754
