19
../xyz/dsC7O2H10nsd_5694.xyz
O         -2.77136        1.02479        0.05557
C         -2.21489       -0.20959       -0.37045
C         -1.05978       -0.63021        0.51144
O         -0.20213       -1.67722       -0.02497
C          0.32735       -0.38668        0.14233
C          1.61943        0.00564        0.87425
C          1.38212        1.43234        0.28949
C          1.07626        0.46556       -0.89746
C          2.35111       -0.33078       -0.46648
H         -2.09980        1.70460       -0.06229
H         -3.02411       -0.94381       -0.30094
H         -1.88054       -0.18194       -1.41751
H         -1.30880       -0.75583        1.56602
H          1.92446       -0.25707        1.88648
H          0.54587        2.00517        0.70092
H          2.27532        2.05009        0.17457
H          0.76791        0.72775       -1.90931
H          2.39208       -1.38299       -0.75260
H          3.30590        0.17575       -0.62890
