19
../xyz/dsC7O2H10nsd_3795.xyz
C         -2.95032        0.96164        0.36730
C         -1.94682        0.12999       -0.39905
C         -1.80985       -1.34804       -0.15039
C         -0.71350       -0.40383        0.29452
C          0.60236       -0.39259       -0.41876
O          1.58580       -1.32799        0.11073
C          2.57508       -0.31416        0.36910
C          1.58767        0.75486       -0.11322
O          1.56943        1.94408       -0.19147
H         -2.64200        2.01143        0.41495
H         -3.93796        0.92161       -0.10489
H         -3.05948        0.59832        1.39461
H         -1.79819        0.44531       -1.42905
H         -2.42408       -1.79548        0.62387
H         -1.60576       -2.00254       -0.99120
H         -0.64299       -0.21593        1.36260
H          0.45849       -0.54479       -1.49923
H          2.86553       -0.25401        1.42569
H          3.47690       -0.41985       -0.24849
