19
../xyz/dsC7O2H10nsd_0253.xyz
C         -1.49351        1.23488        0.34963
C         -1.55656       -0.24475        0.74579
O         -1.84031       -1.02823       -0.43118
C         -0.49960       -0.60350       -0.21023
C          0.65194       -1.55267       -0.12384
C          1.94526       -0.72457        0.14246
O          1.68032        0.58849        0.61026
C          1.03832        1.38211       -0.38011
C         -0.37451        0.86413       -0.68471
H         -2.41566        1.66738       -0.04637
H         -1.11026        1.86153        1.16021
H         -1.82309       -0.68849        1.69858
H          0.47077       -2.28047        0.67304
H          0.75708       -2.11863       -1.05709
H          2.55946       -1.20016        0.91049
H          2.54558       -0.66688       -0.77947
H          1.02375        2.40558        0.00714
H          1.64534        1.37713       -1.30076
H         -0.64120        1.02708       -1.73228
