19
../xyz/dsC7O2H10nsd_5406.xyz
C         -2.29407       -0.00138        0.86916
C         -1.80341       -0.00042       -0.58292
C         -0.27882       -0.00014       -0.71573
C          0.46789       -1.20350       -0.14161
O          0.01801       -2.31224       -0.01171
C          1.88476       -0.76979        0.26311
C          1.88223        0.77086        0.26935
C          0.46666        1.20382       -0.14102
O          0.01653        2.31280       -0.01421
H         -1.94503        0.88714        1.40340
H         -3.38731       -0.00131        0.90319
H         -1.94507       -0.89060        1.40220
H         -2.18854       -0.88242       -1.10439
H         -2.18845        0.88236       -1.10315
H         -0.00733        0.00026       -1.78750
H          2.12865       -1.21518        1.23096
H          2.59347       -1.18815       -0.45969
H          2.11645        1.20802        1.24344
H          2.59550        1.19866       -0.44320
