19
../xyz/dsC7O2H10nsd_4464.xyz
O         -2.21455       -1.23738        0.04937
C         -1.21036       -0.40571       -0.49863
C         -1.43339        1.12219       -0.20366
C         -0.03601        1.80750       -0.17220
C          0.86564        0.66053        0.21422
C          2.22991        0.08009       -0.20830
C          1.50641       -1.30228       -0.43461
C          0.19500       -0.62550        0.00672
O          0.39988       -0.10513        1.33308
H         -2.12794       -1.18067        1.00826
H         -1.23739       -0.59510       -1.57813
H         -2.10567        1.57416       -0.93645
H         -1.91509        1.20647        0.77400
H          0.25140        2.17111       -1.16565
H         -0.00331        2.66262        0.51044
H          2.60799        0.50883       -1.13925
H          3.01237        0.11685        0.55238
H          1.49979       -1.60052       -1.48549
H          1.83206       -2.14464        0.17898
