19
../xyz/dsC7O2H10nsd_5123.xyz
C         -2.73786       -0.70607        0.20700
O         -1.93004        0.16020       -0.57704
C         -0.62946        0.24095       -0.13442
C         -0.21793        1.01321        1.08175
C          0.34077        1.41259       -0.27207
C          1.45852        0.45883       -0.75225
C          2.32786       -0.27396        0.29234
O          1.32206       -1.30942        0.46104
C          0.49659       -0.73025       -0.57891
H         -2.78605       -0.37058        1.25175
H         -3.73977       -0.68559       -0.22714
H         -2.36092       -1.73801        0.18910
H         -0.98474        1.69163        1.44260
H          0.39854        0.56804        1.85492
H          0.16428        2.40303       -0.67252
H          1.90628        0.70710       -1.71281
H          3.25625       -0.69329       -0.11357
H          2.54852        0.25200        1.22820
H          0.23053       -1.43231       -1.37313
