19
../xyz/dsC7O2H10nsd_4852.xyz
C         -2.46298        0.46987       -0.42086
O         -1.22915       -0.08324       -0.83689
C         -0.29263       -0.31664        0.19120
C         -0.71056       -1.42981        1.14915
C          0.30323        0.93666        0.87922
C          0.84934        1.85654       -0.15043
C          1.69945        0.65633        0.24871
C          1.14509       -0.58191       -0.37432
O          1.62868       -1.53950       -0.90778
H         -2.31980        1.39126        0.16215
H         -3.02033        0.71153       -1.32879
H         -3.05808       -0.23397        0.17622
H          0.08473       -1.63579        1.87151
H         -1.60931       -1.15997        1.71180
H         -0.90665       -2.34370        0.58292
H          0.12415        1.22831        1.90613
H          0.39353        1.89114       -1.13382
H          1.24065        2.80426        0.20405
H          2.68922        0.78267        0.66915
