19
../xyz/dsC7O2H10nsd_0951.xyz
O         -3.44230       -0.53323       -0.42306
C         -2.63098       -0.00990        0.29523
C         -1.46812        0.83698       -0.17276
C         -0.12484        0.38610        0.43689
C          0.28605       -1.00305       -0.07624
O          1.59736       -1.33630        0.33542
C          2.57924       -0.49606       -0.23951
C          2.20416        0.95934       -0.20706
C          0.98194        1.36520        0.12712
H         -2.69404       -0.11839        1.40497
H         -1.44034        0.83234       -1.26671
H         -1.67154        1.86732        0.15458
H         -0.25452        0.32672        1.52869
H         -0.36734       -1.78663        0.31929
H          0.20602       -1.02171       -1.17650
H          3.49822       -0.66663        0.33386
H          2.79333       -0.80429       -1.27999
H          2.98363        1.67067       -0.46698
H          0.74138        2.42517        0.16788
