19
../xyz/dsC7O2H10nsd_5305.xyz
C         -2.74815       -0.04228       -0.41552
O         -1.79479       -0.02683        0.63415
C         -0.48101        0.03649        0.19976
C          0.06656        1.35896       -0.34737
O          1.45690        1.35519       -0.01124
C          1.79245        0.01870        0.34192
C          1.55939       -0.97681       -0.84552
C          0.17882       -1.26409       -0.25434
C          0.56617       -0.58750        1.06200
H         -2.57434       -0.87849       -1.10641
H         -3.72909       -0.15889        0.05027
H         -2.74006        0.89410       -0.99080
H         -0.05860        1.46684       -1.43352
H         -0.42524        2.20560        0.14619
H          2.76973        0.02393        0.82136
H          1.63362       -0.55420       -1.85298
H          2.21447       -1.84931       -0.76857
H         -0.41925       -2.15793       -0.38783
H          0.42662       -0.87938        2.09340
