19
../xyz/dsC7O2H10nsd_2766.xyz
C         -2.12986       -1.43104        0.00717
C         -0.65686       -1.04735        0.00261
C         -0.04048        0.04106        0.96259
C         -0.56689        1.16134       -0.00644
O         -1.93088        1.48149       -0.09342
C         -0.04382        0.04795       -0.95498
C          1.15756        0.01298        0.00370
C          2.51769        0.52758        0.00106
O          2.22470       -0.89506       -0.00163
H         -2.79549       -0.57140        0.00709
H         -2.35382       -2.04447       -0.87331
H         -2.34698       -2.04630        0.88841
H         -0.05319       -1.96054       -0.00204
H         -0.02230        0.04716        2.05327
H          0.04095        2.07716       -0.00278
H         -2.14448        2.06790        0.63904
H         -0.03079        0.06078       -2.04480
H          2.96270        0.90418       -0.91869
H          2.96883        0.89906        0.92001
