19
../xyz/dsC7O2H10nsd_1838.xyz
O          0.03539        2.10717       -0.13202
C          0.39255        0.77521        0.01487
C          0.80802        0.11691        1.38021
C          0.33767       -1.18683        0.66257
C          1.37582       -1.32480       -0.47314
C          1.41440        0.16065       -0.96672
C         -0.71508       -0.28840       -0.00524
C         -1.89444       -0.49811       -0.83343
O         -1.99217       -0.06150        0.54232
H          0.83676        2.63217       -0.22904
H          1.85725        0.17886        1.68408
H          0.14213        0.41714        2.19004
H          0.05031       -2.07772        1.21711
H          2.34517       -1.66776       -0.10137
H          1.04980       -2.01557       -1.25538
H          2.40425        0.61799       -0.86107
H          1.09469        0.27660       -2.00615
H         -2.17883        0.25101       -1.57075
H         -2.26098       -1.50590       -1.02460
