19
../xyz/dsC7O2H10nsd_4432.xyz
C          1.76714        1.58266       -0.55540
C          1.22002        0.16542       -0.59848
C          1.97545       -0.96799        0.15033
C          0.60492       -1.54957        0.58379
C         -0.06392       -0.20080        0.21174
C         -0.68535        0.72023        1.27736
O         -1.96769        0.68895        0.56559
C         -1.45302       -0.13240       -0.40861
O         -2.00949       -0.56962       -1.36517
H          1.97450        1.90515        0.47096
H          2.70669        1.64518       -1.11478
H          1.06881        2.29949       -1.00134
H          1.04322       -0.13390       -1.63752
H          2.63457       -1.60925       -0.43865
H          2.54061       -0.57737        1.00265
H          0.25943       -2.34746       -0.07874
H          0.49386       -1.87912        1.61948
H         -0.79057        0.29507        2.27847
H         -0.30519        1.74217        1.33182
