19
../xyz/dsC7O2H10nsd_5988.xyz
C          3.86792       -0.16633       -0.20540
C          2.39506        0.10037       -0.52308
C          1.45909       -0.34010        0.62267
C          0.01043       -0.11147        0.33228
C         -0.97143       -0.99882        0.14868
C         -2.24143       -0.28953       -0.11421
O         -3.34041       -0.71574       -0.32770
O         -1.97134        1.06314       -0.07686
C         -0.59063        1.26593        0.19421
H          4.51225        0.14880       -1.03133
H          4.18508        0.37632        0.69186
H          4.04819       -1.23228       -0.02916
H          2.25098        1.16841       -0.72572
H          2.10768       -0.42859       -1.43935
H          1.62125       -1.40227        0.83568
H          1.73683        0.20917        1.53354
H         -0.91490       -2.07724        0.18174
H         -0.14462        1.84235       -0.62614
H         -0.48283        1.85569        1.11445
