19
../xyz/dsC7O2H10nsd_3079.xyz
O          1.34272        1.77979       -0.09477
C          1.45061        0.42025       -0.36487
C          1.18567       -0.59957        0.77332
C          0.88606       -1.63613       -0.33125
C          0.25665       -0.38179       -1.01494
C         -0.83332       -0.06474       -0.01192
C         -1.88627        0.98814       -0.13685
C         -2.26220       -0.48926       -0.07694
O         -0.12328       -0.18871        1.23435
H          0.65192        1.87264        0.57387
H          2.39034        0.24787       -0.89226
H          1.83740       -0.76287        1.62971
H          1.78224       -2.00151       -0.83535
H          0.21744       -2.45645       -0.06791
H          0.00735       -0.33196       -2.07323
H         -2.10161        1.58385        0.74418
H         -1.98833        1.51619       -1.07905
H         -2.71180       -0.84557        0.84317
H         -2.62367       -0.97231       -0.97911
