19
../xyz/dsC7O2H10nsd_0159.xyz
C          0.75555        0.47429        1.22979
C          1.80247       -0.18182        0.31605
C          1.48015        0.94125       -0.73096
C          0.05679        0.69227       -0.15576
C         -1.34670        1.23656       -0.26430
C         -2.15158       -0.01927        0.21679
O         -1.29732       -1.17908        0.09940
C         -0.12987       -0.76485       -0.57337
O          1.09359       -1.35265       -0.16554
H          0.27072       -0.17083        1.96324
H          1.08082        1.41876        1.67123
H          2.81056       -0.45759        0.61929
H          1.91772        1.90326       -0.45858
H          1.65572        0.71590       -1.78595
H         -1.54486        2.11105        0.35949
H         -1.60398        1.49014       -1.29808
H         -2.45038        0.07334        1.26633
H         -3.05647       -0.17238       -0.38176
H         -0.25088       -0.92838       -1.65565
