19
../xyz/dsC7O2H10nsd_4577.xyz
C          2.31828       -1.08179        0.23209
C          0.96052       -0.59822       -0.29468
C         -0.19062       -1.42806        0.27966
O         -1.38953       -1.25520       -0.45654
C         -2.26133       -0.27870        0.04097
C         -1.73173        1.11575        0.17602
C         -0.48449        1.59497        0.09419
C          0.82234        0.91994       -0.11323
O          1.81801        1.62152       -0.13802
H          2.35572       -1.03350        1.32621
H          2.50189       -2.11751       -0.06813
H          3.11796       -0.44958       -0.15369
H          0.92891       -0.75745       -1.38280
H          0.06721       -2.48950        0.19894
H         -0.34760       -1.20847        1.34684
H         -3.11759       -0.26132       -0.64557
H         -2.67030       -0.57701        1.02647
H         -2.52121        1.83595        0.39299
H         -0.34057        2.66441        0.22500
