19
../xyz/dsC7O2H10nsd_4446.xyz
C          2.16853       -0.98108       -0.93650
C          1.64817        0.20223       -0.12073
O          1.25786       -0.18190        1.20162
C         -0.12363       -0.54024        1.19986
C         -0.76343        0.30973        0.11787
C         -0.36942        1.78054        0.11474
C          0.40211        0.83107       -0.73291
C         -2.02760       -0.10637       -0.51244
O         -2.65234       -1.09457       -0.20779
H          1.38281       -1.72411       -1.10665
H          2.53626       -0.64590       -1.91220
H          2.99230       -1.46554       -0.40590
H          2.45069        0.93868        0.00967
H         -0.27929       -1.60391        0.97447
H         -0.51100       -0.34300        2.20395
H         -1.04415        2.46858       -0.38403
H          0.08719        2.15684        1.02433
H          0.31600        0.88033       -1.81256
H         -2.38334        0.57447       -1.32103
