19
../xyz/dsC7O2H10nsd_1935.xyz
C         -2.63448       -0.15951       -0.52425
C         -1.24704       -0.07260        0.04804
C         -0.71997        1.25429        0.60053
C          0.78844        1.14185        0.43847
O          1.21717        1.05530       -0.93090
C          1.16894       -0.15308       -0.14663
C          2.46261       -0.87809        0.08699
C         -0.11654       -0.90490       -0.38619
O         -0.81201       -1.19910        0.83762
H         -3.38265        0.09655        0.23423
H         -2.75093        0.53826       -1.35991
H         -2.84310       -1.17177       -0.87893
H         -1.11321        2.10685        0.03649
H         -1.00397        1.37992        1.65100
H          1.45867        1.69044        1.09553
H          2.35491       -1.58548        0.91560
H          2.75838       -1.44271       -0.80412
H          3.26350       -0.17351        0.32427
H         -0.19465       -1.65597       -1.16969
