19
../xyz/dsC7O2H10nsd_4779.xyz
C          3.23284       -1.03204        0.62697
O          2.73774        0.10851       -0.03832
C          1.35869        0.36448        0.15716
C          1.13281        1.85018       -0.08591
C          0.51799       -0.51806       -0.80623
C         -0.91288       -0.43045       -0.57484
C         -2.09529       -0.34189       -0.33918
C         -3.51280       -0.25713       -0.10611
O         -4.01872        0.11596        0.92805
H          2.79156       -1.96906        0.25477
H          4.30971       -1.06575        0.44559
H          3.05567       -0.97627        1.71164
H          1.07370        0.11060        1.19009
H          0.07581        2.10443        0.02803
H          1.71629        2.44014        0.62488
H          1.45258        2.11918       -1.09780
H          0.75498       -0.23435       -1.83926
H          0.82245       -1.56615       -0.69554
H         -4.13310       -0.56895       -0.97137
