19
../xyz/dsC7O2H10nsd_5093.xyz
C          2.91899       -0.57956       -0.00728
O          1.82760       -0.17288       -0.82071
C          0.70123        0.13518       -0.09666
C          0.49417        1.41986        0.65776
C         -0.42340        1.05788       -0.49878
C         -1.44744       -0.06223       -0.09859
C         -2.78977       -0.28629       -0.70928
O         -1.24802       -0.39754        1.29028
C         -0.36236       -0.95202        0.30477
H          2.67578       -1.47676        0.57887
H          3.74863       -0.80775       -0.67976
H          3.21852        0.21848        0.68508
H          0.12379        1.43330        1.67498
H          1.21776        2.18878        0.40407
H         -0.51228        1.66494       -1.38978
H         -3.20730       -1.23783       -0.36991
H         -3.48353        0.51479       -0.42947
H         -2.71812       -0.30198       -1.80175
H         -0.24836       -2.02956        0.25943
