19
../xyz/dsC7O2H10nsd_1916.xyz
C          1.93191       -0.65107        1.19528
C          1.10479       -0.00382        0.07995
O          1.88813        0.99308       -0.59212
C          0.55726       -1.02987       -0.91348
C         -0.77399       -1.04489       -0.95602
C         -1.36021       -0.02643       -0.02730
O         -2.56083       -0.28626        0.62855
C         -1.05093        1.40372       -0.36059
C         -0.16483        0.65607        0.61722
H          2.79375       -1.18808        0.78160
H          2.30334        0.11875        1.87903
H          1.33347       -1.36995        1.76341
H          2.65896        0.55441       -0.96872
H          1.22054       -1.61583       -1.54264
H         -1.39330       -1.66141       -1.59877
H         -2.43105       -1.06143        1.18666
H         -0.65878        1.64745       -1.34068
H         -1.71103        2.14329        0.08035
H         -0.19828        0.95601        1.65796
