19
../xyz/dsC7O2H10nsd_0113.xyz
C         -0.03942        0.61244        1.56741
C          0.73706        0.16497        0.35104
C          1.73603        0.90045       -0.53399
O          2.47731       -0.32049       -0.74325
C          1.62496       -1.05883        0.16489
C         -0.74977        0.18370        0.32029
C         -1.71554        0.93033       -0.59352
C         -2.46352       -0.42039       -0.63077
O         -1.49696       -1.03234        0.25807
H         -0.07159       -0.06513        2.41611
H         -0.03830        1.66832        1.82573
H          1.34734        1.31550       -1.47425
H          2.33996        1.66660       -0.02803
H          1.14744       -1.92077       -0.31592
H          2.17095       -1.39288        1.05707
H         -2.25969        1.75357       -0.12697
H         -1.29875        1.26403       -1.54627
H         -3.46783       -0.42086       -0.19385
H         -2.49125       -0.92177       -1.60432
