19
../xyz/dsC7O2H10nsd_2898.xyz
O         -2.33658       -0.40354       -0.33846
C         -1.18807        0.40764       -0.49862
C         -0.02814       -0.42140       -1.03519
C          1.26195        0.41066       -0.78837
C          0.80129        1.49351        0.21535
C         -0.46778        0.83597        0.80908
C         -0.07966       -0.54236        1.39807
C          0.54828       -1.22859        0.16856
O          1.87405       -0.68242       -0.06366
H         -3.02034        0.12564        0.08434
H         -1.40639        1.27457       -1.14076
H         -0.14411       -0.93232       -1.98769
H          1.88439        0.76228       -1.61376
H          1.58227        1.69924        0.95174
H          0.55323        2.43061       -0.29711
H         -1.04531        1.47814        1.47863
H          0.63546       -0.48457        2.22220
H         -0.97215       -1.07894        1.73029
H          0.54597       -2.31950        0.17593
