19
../xyz/dsC7O2H10nsd_2071.xyz
C         -0.23486        2.16226       -0.38182
C         -0.43244        0.72189       -0.00476
O         -1.40558        0.44938        1.02783
C         -1.62942       -0.08173       -0.28148
C         -1.18332       -1.52060       -0.41445
O          0.13766       -1.55564        0.12086
C          0.70275       -0.26362        0.05276
C          1.98364       -0.06799        0.79326
C          1.98292       -0.08497       -0.72602
H         -1.19033        2.68952       -0.33860
H          0.45427        2.65776        0.31104
H          0.17286        2.25675       -1.39242
H         -2.49777        0.28930       -0.82043
H         -1.79411       -2.22428        0.16004
H         -1.20236       -1.81909       -1.47515
H          2.14843        0.87558        1.30218
H          2.38011       -0.93682        1.30586
H          2.16669        0.84362       -1.25557
H          2.37003       -0.97363       -1.21136
