19
../xyz/dsC7O2H10nsd_2180.xyz
C          0.05360        2.25797       -0.00807
C          0.24400        0.77191       -0.00026
C          0.99073       -0.11532        1.04205
C         -0.29642       -0.94179        1.28646
C         -0.89775       -0.35239       -0.01242
O         -2.27045       -0.13913       -0.10934
C         -0.26863       -0.94270       -1.28918
C          1.01174       -0.11755       -1.02563
O          1.81865       -0.70640        0.01938
H         -0.49270        2.59483        0.88109
H          1.01339        2.78647       -0.02682
H         -0.52298        2.57501       -0.88425
H          1.57358        0.23101        1.89801
H         -0.19814       -2.02656        1.38228
H         -0.82858       -0.54347        2.16096
H         -2.60155        0.13672        0.75203
H         -0.16574       -2.02775       -1.37253
H         -0.80161       -0.54930       -2.16105
H          1.61519        0.22646       -1.86781
