19
../xyz/dsC7O2H10nsd_4280.xyz
O         -2.42477       -0.74114       -0.38570
C         -1.04025       -0.53966       -0.42780
C         -0.20814       -1.48638        0.45176
C          1.11088       -0.72477        0.70336
C          2.09578       -0.60746       -0.49982
C          1.85030        0.92621       -0.56168
C          0.78516        0.80613        0.58062
C         -0.65107        0.84305        0.10995
O         -1.44937        1.74499        0.20745
H         -2.80822        0.14174       -0.26445
H         -0.67437       -0.59610       -1.47023
H         -0.74979       -1.63654        1.39282
H         -0.04951       -2.46762       -0.00412
H          1.58921       -1.03230        1.63412
H          3.12565       -0.89673       -0.28036
H          1.77692       -1.15561       -1.39066
H          2.71119        1.52370       -0.25645
H          1.48313        1.32307       -1.51143
H          0.93296        1.46278        1.43832
