19
../xyz/dsC7O2H10nsd_0947.xyz
O         -2.92359        0.09080        0.64134
C         -2.47550       -0.20317       -0.43414
O         -1.18958       -0.41757       -0.73202
C         -0.23616       -0.30310        0.36615
C          0.21259        1.16054        0.54275
C          1.37957        1.35227       -0.45494
C          2.00375       -0.03013       -0.59000
C          2.27397       -0.79253        0.68179
C          0.99957       -1.04737       -0.08695
H         -3.07581       -0.34342       -1.34757
H         -0.71581       -0.70538        1.26041
H         -0.61554        1.85290        0.38403
H          0.54859        1.30596        1.57370
H          0.99674        1.67157       -1.43053
H          2.08758        2.11582       -0.11652
H          2.62050       -0.24039       -1.45625
H          3.02296       -1.57551        0.64058
H          2.23308       -0.27858        1.63675
H          0.85623       -2.00791       -0.56711
