19
../xyz/dsC7O2H10nsd_2364.xyz
O         -0.60639        1.87703       -0.54529
C         -0.61226        0.60403        0.01313
C         -1.93767        0.02068        0.54077
O         -1.69815       -1.24960       -0.09725
C         -0.46931       -0.80019       -0.70151
C          0.75213       -1.11862        0.16993
C          2.08836       -0.63136       -0.45042
C          1.95216        0.73084        0.29162
C          0.60106        0.28094        0.90197
H         -1.37164        1.96694       -1.12371
H         -2.05158       -0.06274        1.62883
H         -2.82870        0.51906        0.12779
H         -0.42833       -0.99687       -1.77764
H          0.73495       -2.08090        0.68136
H          2.95410       -1.21950       -0.13836
H          2.09422       -0.58064       -1.54381
H          2.72457        0.88384        1.04855
H          1.89747        1.62413       -0.33299
H          0.46436        0.40929        1.97742
