19
../xyz/dsC7O2H10nsd_1364.xyz
C         -1.84755        0.17109        1.65748
C         -0.99982        0.20907        0.38522
O          0.12504       -0.62890        0.59454
C          1.18966       -0.45307       -0.34053
C          2.17796       -1.59492       -0.10387
C          1.82788        0.86242       -0.19725
C          2.35539        1.93576       -0.07687
C         -1.83178       -0.30411       -0.78827
O         -2.56565        0.37724       -1.45385
H         -2.17323       -0.85134        1.87286
H         -1.25371        0.52812        2.50224
H         -2.72866        0.80669        1.54045
H         -0.69123        1.24084        0.17189
H          0.79506       -0.52955       -1.36743
H          1.66966       -2.55246       -0.24083
H          3.01267       -1.52593       -0.80524
H          2.56783       -1.54358        0.91538
H          2.82006        2.88566        0.02499
H         -1.72395       -1.40257       -0.95532
