19
../xyz/dsC7O2H10nsd_1375.xyz
C         -0.34189       -0.91256        1.82125
C          0.29100       -0.59246        0.47745
O          1.19016        0.52418        0.71216
C          2.22303        0.66044       -0.12685
O          2.47804       -0.04223       -1.06834
C         -0.70419       -0.22365       -0.65160
C         -1.55504       -1.43991       -1.07208
C         -1.54390        0.91824       -0.29533
C         -2.25323        1.84434       -0.00468
H          0.43562       -1.12046        2.56056
H         -0.94624       -0.07266        2.17272
H         -0.98158       -1.79521        1.74235
H          0.89485       -1.43017        0.11704
H          2.81885        1.53145        0.18740
H         -0.08555        0.05718       -1.51196
H         -2.16470       -1.18722       -1.94264
H         -0.90950       -2.28285       -1.33769
H         -2.23005       -1.75296       -0.27161
H         -2.87195        2.67070        0.24421
