19
../xyz/dsC7O2H10nsd_3460.xyz
C         -0.03269        2.05875       -0.19004
C         -0.00471        0.63977        0.32176
C         -1.04676        0.20109        1.33249
C         -1.05760       -0.38296       -0.06883
O         -2.07822       -0.06439       -0.96447
C         -0.33228       -1.68194       -0.20206
C          0.96174       -1.55543        0.10175
C          1.34020       -0.11588        0.38599
O          2.32219        0.37111       -0.52253
H         -1.05816        2.35618       -0.42432
H          0.37156        2.75710        0.55080
H          0.56861        2.15952       -1.09698
H         -0.76606       -0.44613        2.15805
H         -1.81385        0.93606        1.56253
H         -2.91563       -0.34871       -0.58420
H         -0.84111       -2.60232       -0.46786
H          1.69319       -2.35394        0.14338
H          1.79930       -0.00055        1.37538
H          2.04293        0.10862       -1.40714
