19
../xyz/dsC7O2H10nsd_1457.xyz
C         -0.93545       -1.38919        1.22982
C         -0.53151       -0.65782       -0.04262
O         -0.36810       -1.56398       -1.11922
C         -1.34355        0.59069       -0.47444
C         -1.15668        1.74349        0.47054
C         -0.07173        1.43942       -0.52968
C          0.72870        0.25551       -0.02850
C          1.94176        0.20744        0.79146
O          1.94470       -0.15635       -0.59971
H         -0.19603       -2.15886        1.47154
H         -1.02427       -0.71052        2.08246
H         -1.90640       -1.88265        1.09606
H         -1.20312       -2.03173       -1.23144
H         -2.15745        0.55033       -1.18887
H         -1.75768        2.62097        0.25318
H         -0.98631        1.58109        1.53196
H          0.26088        2.14307       -1.28181
H          2.46470        1.13155        1.03526
H          2.10358       -0.61789        1.48357
