19
../xyz/dsC7O2H10nsd_1911.xyz
C         -2.52286       -0.51359       -0.51543
C         -1.16371       -0.08815       -0.00909
C         -0.85390        1.40674       -0.06108
C          0.62456        1.74831       -0.31523
C          1.59254        0.80522        0.42840
C          1.37103       -0.60708       -0.07625
O          2.23380       -1.30171       -0.56377
C         -0.05239       -1.08004        0.00432
O         -0.75399       -0.71959        1.20602
H         -3.31178        0.03904        0.00694
H         -2.62083       -0.30714       -1.58613
H         -2.68209       -1.58090       -0.34524
H         -1.47405        1.87673       -0.83156
H         -1.17918        1.82664        0.89885
H          0.83346        1.68087       -1.39009
H          0.81959        2.78598       -0.02717
H          2.63555        1.07679        0.25361
H          1.39154        0.83726        1.50533
H         -0.22223       -2.09329       -0.35623
