19
../xyz/dsC7O2H10nsd_1921.xyz
C         -2.87056       -0.53608        0.05011
C         -1.49939        0.06273        0.16286
C         -1.17728        1.48136       -0.20178
C         -0.45414        0.36290       -0.91597
C          0.67209       -0.24091       -0.05074
O          1.15344       -1.44818       -0.56911
C         -0.39138       -0.46653        1.09238
C          1.83615        0.66641        0.26976
O          2.98278        0.31285        0.11569
H         -3.46449       -0.33834        0.95086
H         -3.41492       -0.11583       -0.80196
H         -2.82066       -1.62211       -0.08471
H         -1.92163        1.98591       -0.81062
H         -0.66903        2.14281        0.49553
H         -0.50057        0.22637       -1.98996
H          2.12128       -1.37240       -0.54336
H         -0.44949       -1.54061        1.27573
H         -0.25660        0.06166        2.04317
H          1.59345        1.67591        0.65295
