19
../xyz/dsC7O2H10nsd_3341.xyz
C         -2.31361       -1.24124        0.49989
C         -1.22667       -0.84262       -0.47263
C         -1.03177        0.55563       -0.97455
O         -1.36882        1.52507        0.01816
C         -0.29884        1.04341        0.87594
C          0.04075       -0.08072       -0.10078
C          1.40767       -0.55432       -0.41087
C          2.46836       -0.62477        0.60590
O          2.46088        0.41875       -0.36924
H         -1.98684       -2.05089        1.16076
H         -2.61572       -0.38970        1.11374
H         -3.20029       -1.58722       -0.04140
H         -1.01458       -1.57827       -1.24825
H         -1.03991        0.87169       -2.01194
H          0.50157        1.78696        0.94257
H         -0.65406        0.77428        1.87730
H          1.47577       -1.24157       -1.25569
H          2.25353       -0.31105        1.62696
H          3.26874       -1.35704        0.50718
