19
../xyz/dsC7O2H10nsd_0093.xyz
C         -4.25434        0.76624       -0.17269
C         -3.26912        0.11996        0.05814
C         -2.09350       -0.68725        0.35602
O         -0.93595       -0.07398       -0.17683
C          0.24016       -0.80782        0.09287
C          1.40147       -0.06425       -0.54111
C          1.90325        1.21431        0.16167
C          3.21876        0.42790        0.33355
O          2.64934       -0.74704       -0.28829
H         -5.12219        1.34186       -0.38068
H         -1.99605       -0.81116        1.44837
H         -2.22099       -1.69946       -0.06463
H          0.40669       -0.90769        1.17872
H          0.18251       -1.82587       -0.32753
H          1.21301        0.05146       -1.61626
H          1.95907        2.10625       -0.46262
H          1.37698        1.45703        1.08661
H          4.07473        0.81188       -0.23474
H          3.53902        0.22927        1.36309
