19
../xyz/dsC7O2H10nsd_2641.xyz
C          0.49226        2.35866       -0.62550
C          0.28550        1.05409        0.12296
C          1.34548       -0.07689        0.00758
O          2.41767       -0.14452        0.90723
C          0.20864       -1.11487        0.05194
O          0.38691       -2.23436       -0.76711
C         -0.77279        0.02495       -0.40170
C         -2.11498        0.04732        0.13183
C         -3.22011        0.04967        0.60866
H         -0.38315        3.01089       -0.54014
H          1.35657        2.90052       -0.22690
H          0.67375        2.17629       -1.69040
H          0.08492        1.24812        1.18379
H          1.78785       -0.08223       -0.99457
H          2.05956       -0.16006        1.80115
H         -0.01487       -1.39184        1.09371
H         -0.35963       -2.82966       -0.64301
H         -0.78617        0.04155       -1.49752
H         -4.19953        0.05978        1.01833
