19
../xyz/dsC7O2H10nsd_0543.xyz
C          1.55967       -1.01852       -0.61723
O          2.25564       -0.00331        0.14636
C          1.04710        0.38640        0.84048
C          0.37750        1.64049        0.24271
C         -0.40232        0.72564       -0.75543
O         -1.80426        0.64654       -0.57243
C         -2.08836       -0.33169        0.42654
C         -0.98133       -1.39501        0.30559
C          0.20813       -0.54654       -0.08497
H          1.73353       -0.92653       -1.69702
H          1.84966       -2.02761       -0.29329
H          1.14363        0.28939        1.92640
H         -0.29540        2.15557        0.93438
H          1.07037        2.36075       -0.19742
H         -0.20892        0.89713       -1.81803
H         -2.07560        0.12004        1.43138
H         -3.09521       -0.71432        0.24082
H         -0.83690       -1.95999        1.23084
H         -1.21855       -2.10497       -0.49565
