19
../xyz/dsC7O2H10nsd_4541.xyz
C          2.43527       -1.10525       -0.26648
C          1.15332       -0.28424       -0.31452
C          1.19424        0.94567        0.59889
C          0.27377        2.07007        0.12420
C         -1.11633        1.67227       -0.26544
C         -1.69119        0.46609       -0.32213
C         -1.20475       -0.89082        0.04816
O         -1.99838       -1.76123        0.31104
O          0.11346       -1.19311        0.09319
H          2.66106       -1.40248        0.76222
H          2.33051       -2.01040       -0.86926
H          3.27491       -0.52032       -0.65303
H          0.95633        0.02678       -1.34963
H          0.92543        0.61845        1.60954
H          2.21898        1.32785        0.65335
H          0.20906        2.85367        0.89155
H          0.72448        2.57213       -0.74575
H         -1.74896        2.51376       -0.54629
H         -2.73848        0.41253       -0.60269
