19
../xyz/dsC7O2H10nsd_0155.xyz
C         -2.77161       -0.52133        0.47794
C         -2.16726        0.41512       -0.51735
O         -1.16201        1.23005        0.09614
C         -0.36103        0.04121        0.37534
C         -1.45097       -0.87158       -0.17787
C          0.91638        0.08037       -0.43804
C          2.04714        0.99740        0.07451
C          2.83579       -0.31616        0.25199
O          1.71616       -1.10468       -0.21160
H         -2.81425       -0.23475        1.52535
H         -3.61748       -1.10215        0.12277
H         -2.64416        0.78826       -1.41607
H         -0.13042       -0.05583        1.44439
H         -1.28305       -1.77299       -0.75061
H          0.66767        0.20164       -1.50035
H          2.45082        1.69816       -0.65647
H          1.81490        1.53496        0.99567
H          3.71098       -0.43418       -0.39838
H          3.12105       -0.57630        1.27821
