19
../xyz/dsC7O2H10nsd_3496.xyz
O          0.12271        2.05810        0.10928
C          0.59501        0.85713       -0.47740
C          1.98111        0.52277        0.00879
C          2.12360       -0.78435        0.21735
C          0.84544       -1.54315       -0.06066
C         -0.21327       -0.42798       -0.12405
C         -1.53432       -0.58138       -0.90134
O         -2.27775       -0.00321        0.19587
C         -1.15572       -0.22309        1.08517
H         -0.79739        2.17307       -0.15641
H          0.60814        0.97331       -1.57775
H          2.74827        1.28137        0.10720
H          3.04320       -1.27724        0.51246
H          0.91175       -2.08367       -1.01663
H          0.61253       -2.29766        0.69988
H         -1.64612       -0.00589       -1.82892
H         -1.83159       -1.62367       -1.08810
H         -0.96633        0.63453        1.73353
H         -1.29321       -1.13296        1.68640
