19
../xyz/dsC7O2H10nsd_3447.xyz
O          2.47218       -0.49932       -0.41606
C          1.36249       -0.56431        0.47705
C          0.25845       -1.48896       -0.02150
C         -0.92302       -0.91675        0.18027
C         -2.30820       -0.71200       -0.38399
C         -1.97882        0.82951       -0.28425
C         -0.84198        0.47524        0.73609
C          0.64841        0.84718        0.61322
O          0.86044        1.60717       -0.56072
H          2.10105       -0.49145       -1.30663
H          1.79458       -0.87274        1.43669
H          0.48058       -2.41132       -0.54637
H         -2.52929       -1.13975       -1.36460
H         -3.10688       -0.98888        0.31221
H         -1.56010        1.21273       -1.21495
H         -2.78078        1.48383        0.06409
H         -1.19677        0.57017        1.76797
H          1.02186        1.39149        1.49254
H          1.81081        1.56370       -0.72801
