19
../xyz/dsC7O2H10nsd_5007.xyz
C          2.88886       -0.87021        0.01821
C          1.49012       -0.36992       -0.06004
C          0.36380       -0.88078       -0.56532
C         -0.65920        0.23410       -0.26882
C         -2.13489       -0.00462       -0.43710
O         -2.55865       -1.10013        0.35486
C          0.12585        1.50483       -0.72132
C          0.97018        0.98566        0.47811
O         -0.28781        0.59338        1.12128
H          3.58650       -0.19086       -0.48839
H          3.22703       -0.94407        1.05964
H          2.98622       -1.85746       -0.44147
H          0.16791       -1.82381       -1.05415
H         -2.68419        0.91571       -0.18620
H         -2.35891       -0.25688       -1.47955
H         -2.20747       -0.94761        1.24033
H          0.57407        1.51470       -1.71670
H         -0.40352        2.43425       -0.49506
H          1.61576        1.61564        1.09010
