19
../xyz/dsC7O2H10nsd_3883.xyz
C         -2.05220       -1.41567        0.33691
C         -1.38132       -0.30539       -0.46991
O         -0.05632       -0.67473       -0.88712
C          0.90054       -0.08566       -0.03296
C          1.86029       -0.96644        0.72884
C          2.32753       -0.15121       -0.46515
C          0.24371        1.08872        0.61354
O         -0.41189        1.95512       -0.32514
C         -1.19026        0.96176        0.34565
H         -1.51602       -1.60034        1.27324
H         -3.08714       -1.14946        0.57805
H         -2.06212       -2.34262       -0.24183
H         -1.94712       -0.10878       -1.38818
H          2.17823       -0.66765        1.72297
H          1.74823       -2.03510        0.58583
H          2.96104        0.71234       -0.29485
H          2.52637       -0.68687       -1.38637
H          0.66590        1.55838        1.49706
H         -1.97147        1.32035        1.01066
