19
../xyz/dsC7O2H10nsd_5589.xyz
C         -2.95885        0.67270        0.34088
O         -2.21218       -0.44560       -0.10687
C         -0.87905       -0.39465        0.26096
C          0.06603       -1.14127       -0.59776
C          1.38474       -1.59021        0.03599
C          1.99251       -0.32246        0.67238
C          1.34142        0.86526       -0.06043
O          1.80617        1.97569       -0.14814
C          0.06884        0.38587       -0.67087
H         -2.57947        1.60959       -0.08930
H         -3.98989        0.51714        0.01714
H         -2.93639        0.75750        1.43714
H         -0.70867       -0.33359        1.33807
H         -0.36134       -1.71906       -1.40896
H          1.24151       -2.40273        0.75519
H          2.04589       -1.96617       -0.75142
H          1.74754       -0.23984        1.73890
H          3.07939       -0.26174        0.59432
H         -0.38440        0.94680       -1.47785
