19
../xyz/dsC7O2H10nsd_1656.xyz
C          2.08043       -1.33691       -0.71852
C          1.20780       -0.31466       -0.01706
C          0.75109       -0.55610        1.40928
C         -0.24882       -0.71457        0.30856
C         -1.39404        0.22631        0.15582
C         -2.77876       -0.26312        0.19433
O         -2.16427        0.08278       -1.04632
C          1.45410        1.10318       -0.40094
O          1.04082        2.07228        0.19334
H          1.96583       -1.27856       -1.80654
H          3.13987       -1.18591       -0.48280
H          1.81627       -2.35261       -0.41170
H          1.12224       -1.44445        1.90825
H          0.67140        0.33063        2.02942
H         -0.48439       -1.73011        0.00104
H         -1.20164        1.25633        0.44567
H         -2.96985       -1.32589        0.34209
H         -3.57613        0.39994        0.52757
H          2.07327        1.22535       -1.31805
