19
../xyz/dsC7O2H10nsd_5701.xyz
C          3.26498       -0.22821        0.02127
O          1.92378       -0.66002        0.13927
C          1.05389        0.36109        0.48217
C          0.52956        1.30081       -0.60461
C         -0.35462        0.25478        0.00589
O         -0.80886       -0.88349       -0.73963
C         -2.00240       -0.91578        0.05538
C         -2.80872        0.32921       -0.13517
C         -1.62347        0.33398        0.81605
H          3.64425        0.17908        0.97096
H          3.85934       -1.10292       -0.25237
H          3.37649        0.54230       -0.75487
H          1.21592        0.79063        1.47483
H          0.36433        2.34924       -0.37861
H          0.86962        1.08567       -1.61262
H         -2.37354       -1.88386        0.36751
H         -2.76020        0.86070       -1.08115
H         -3.77745        0.33787        0.35538
H         -1.69338        0.57405        1.86793
