19
../xyz/dsC7O2H10nsd_4862.xyz
C         -1.52837       -1.90866        0.02552
C         -1.83049       -0.43036       -0.22627
C         -0.63443        0.52397       -0.03214
C         -1.01871        1.96383       -0.39728
O          0.43916        0.11276       -0.90621
C          1.57506       -0.16352       -0.18660
O          2.59949       -0.51240       -0.70154
C          1.25421        0.05504        1.24635
C         -0.01479        0.44242        1.34161
H         -2.41718       -2.51510       -0.17066
H         -0.72923       -2.26063       -0.63190
H         -1.22065       -2.09173        1.05940
H         -2.19028       -0.29576       -1.25267
H         -2.63735       -0.08868        0.43376
H         -1.37081        2.00441       -1.43153
H         -1.81829        2.32564        0.25635
H         -0.15697        2.62802       -0.29540
H          1.98503       -0.09297        2.02773
H         -0.56831        0.68762        2.23981
