19
../xyz/dsC7O2H10nsd_2467.xyz
C          0.01966        2.08267        0.21618
C          0.07276        0.66635       -0.32850
O         -1.19154        0.35866       -0.93456
C         -1.88759       -0.46215        0.02871
O         -0.99187       -0.85625        1.09382
C          0.24119       -0.57960        0.50886
C          1.69572       -0.16628        0.83433
C          1.46928        0.04300       -0.73484
C          0.80020       -1.34367       -0.74230
H         -0.31644        2.74778       -0.58499
H         -0.70113        2.16470        1.03730
H          0.98831        2.44602        0.56600
H         -2.71753        0.09065        0.48313
H         -2.25777       -1.35090       -0.49720
H          1.85123        0.71648        1.45292
H          2.39125       -0.96697        1.09171
H          2.21089        0.42863       -1.43225
H          0.10167       -1.54207       -1.55289
H          1.44949       -2.19545       -0.53240
