19
../xyz/dsC7O2H10nsd_2029.xyz
C          1.48719       -1.54986       -0.69799
C          0.75672       -0.40531       -0.05586
O          1.35713        0.19174        1.11088
C          1.18985        0.99914       -0.06734
C         -0.00000        1.94633        0.00000
C         -1.18985        0.99914        0.06733
O         -1.35712        0.19174       -1.11088
C         -0.75672       -0.40531        0.05586
C         -1.48720       -1.54985        0.69800
H          2.55741       -1.33770       -0.75701
H          1.35581       -2.47238       -0.12220
H          1.10449       -1.72332       -1.70904
H          2.11575        1.30828       -0.54596
H          0.05217        2.58838        0.88571
H         -0.05218        2.58839       -0.88569
H         -2.11575        1.30828        0.54595
H         -1.10450       -1.72331        1.70905
H         -2.55741       -1.33769        0.75701
H         -1.35581       -2.47237        0.12221
