19
../xyz/dsC7O2H10nsd_0471.xyz
C          2.65736       -0.72984        0.17585
O          2.57765        0.66552       -0.12156
C          1.41748        0.02208        0.40932
C          0.22181       -0.07813       -0.51280
C         -0.58370        1.24990       -0.59117
C         -1.67479        1.15492        0.50591
C         -1.91228       -0.33485        0.64962
O         -2.06723       -1.00972       -0.60777
C         -0.79265       -1.06809        0.04222
H          2.72934       -1.38691       -0.69035
H          3.30130       -0.99488        1.01325
H          1.19170        0.30961        1.43885
H          0.58167       -0.37755       -1.50292
H          0.06306        2.12226       -0.47318
H         -1.05839        1.32102       -1.57103
H         -1.32404        1.55320        1.46607
H         -2.58266        1.70401        0.23864
H         -2.50388       -0.73692        1.46836
H         -0.48078       -2.05615        0.37339
