19
../xyz/dsC7O2H10nsd_2096.xyz
C          2.38275       -0.61012       -0.18095
C          0.90751       -0.43603       -0.02495
O         -0.00000       -1.24633       -0.84302
C         -0.90751       -0.43602       -0.02495
C         -2.38275       -0.61011       -0.18095
C         -0.00000       -0.48716        1.24426
C          0.00000        1.05357        1.40562
C          0.00000        0.84958       -0.11125
O          0.00001        1.84782       -1.05637
H          2.67717       -1.64372        0.02578
H          2.69507       -0.36147       -1.20048
H          2.91740        0.04811        0.51109
H         -2.67718       -1.64371        0.02578
H         -2.91741        0.04812        0.51109
H         -2.69507       -0.36146       -1.20048
H         -0.00001       -1.26392        2.00591
H         -0.89874        1.49959        1.83994
H          0.89874        1.49959        1.83995
H          0.00002        1.42471       -1.92445
