19
../xyz/dsC7O2H10nsd_5313.xyz
C         -0.65179        2.43971        0.05372
C         -0.00461        1.09112       -0.02219
C         -0.57998       -0.10415       -0.24004
C         -2.03422       -0.41004       -0.43993
O         -2.51517       -1.36660        0.50491
C          0.42498       -1.23168       -0.24441
C          1.76378       -0.53517        0.01354
O          2.83908       -1.06754        0.09785
C          1.49173        0.96908        0.14446
H         -0.41120        2.93284        1.00420
H         -0.27306        3.09829       -0.73848
H         -1.73882        2.39730       -0.04027
H         -2.64238        0.50438       -0.42367
H         -2.18876       -0.88206       -1.41817
H         -2.39941       -0.98483        1.38149
H          0.22705       -1.99071        0.52171
H          0.46251       -1.77589       -1.19841
H          1.85345        1.33753        1.11418
H          2.05998        1.52304       -0.61558
