19
../xyz/dsC7O2H10nsd_4946.xyz
C          2.09957       -1.41960        0.30644
O          1.37496       -0.67666       -0.67428
C          0.17281       -0.19410       -0.19011
C          0.13844        1.15189        0.49319
O          1.30926        1.89839        0.33131
C         -0.66999        0.92088       -0.77550
C         -1.93416        0.03878       -0.58051
C         -2.16085       -0.43914        0.83237
C         -1.08759       -1.08513       -0.00394
H          1.52918       -2.29584        0.63997
H          3.02311       -1.75417       -0.17014
H          2.33860       -0.79784        1.17813
H         -0.31204        1.35634        1.45877
H          1.88321        1.38976       -0.25793
H         -0.49160        1.53546       -1.64847
H         -2.70742       -0.03389       -1.33462
H         -1.93723        0.16593        1.70304
H         -3.05329       -1.04676        0.95464
H         -1.09564       -2.13429       -0.27134
