19
../xyz/dsC7O2H10nsd_1940.xyz
C         -0.50630        2.14772        0.05977
C         -0.25577        0.69386        0.33523
C         -1.10617       -0.13569        1.28944
C         -0.97295       -0.56583       -0.13358
O         -2.11009       -0.73657       -0.90446
C          0.38375       -1.24935       -0.48239
C          1.36174       -1.29700        0.68346
C          1.11086       -0.00080       -0.00719
O          2.17501        0.69953       -0.54793
H         -0.10816        2.45618       -0.91528
H         -1.58037        2.35751        0.05369
H         -0.04242        2.79203        0.81573
H         -0.70540       -0.69240        2.12996
H         -2.06829        0.32613        1.49687
H         -1.88677       -0.53915       -1.82131
H          0.52634       -1.85462       -1.36982
H          1.05995       -1.50999        1.70304
H          2.31827       -1.73435        0.41037
H          1.87658        1.13763       -1.35251
