19
../xyz/dsC7O2H10nsd_1575.xyz
C          1.72170       -0.42199        1.35304
C          1.14776        0.03083       -0.00619
C          2.28177        0.29116       -1.00620
O          0.37402       -1.01264       -0.60302
C         -0.92070       -1.21918       -0.07398
C         -1.77252        0.04631       -0.03286
O         -2.98535       -0.00243       -0.04026
C         -1.01236        1.30083        0.10328
C          0.32324        1.28311        0.17003
H          2.33729       -1.31462        1.21059
H          2.34323        0.36299        1.79432
H          0.92558       -0.65470        2.06544
H          2.84519       -0.63216       -1.16500
H          1.87275        0.61579       -1.96610
H          2.96523        1.05920       -0.63296
H         -1.41039       -1.95710       -0.71359
H         -0.89191       -1.63738        0.94694
H         -1.59049        2.21386        0.20525
H          0.88080        2.19836        0.35855
