19
../xyz/dsC7O2H10nsd_4453.xyz
O          2.63547       -0.03641        0.76272
C          1.79505        0.08880       -0.39219
C          0.94408       -1.16646       -0.63617
C         -0.26887       -1.21020        0.29977
C         -1.12278        0.03161        0.13035
C         -2.49072        0.06689        0.67441
O         -2.28742       -0.10244       -0.72396
C         -0.37216        1.29757       -0.05952
C          0.94184        1.32983       -0.29573
H          2.09189        0.14386        1.53671
H          2.50028        0.20219       -1.22346
H          0.59948       -1.16168       -1.67725
H          1.57523       -2.04907       -0.49906
H         -0.88392       -2.09511        0.11478
H          0.07375       -1.26682        1.34194
H         -2.87079       -0.80646        1.20505
H         -2.93244        1.01686        0.97567
H         -0.95147        2.21617       -0.01353
H          1.45498        2.28259       -0.39643
