19
../xyz/dsC7O2H10nsd_3676.xyz
C         -2.63384       -0.35913       -0.71722
C         -1.61711        0.36529        0.12617
O         -1.14202       -0.31623        1.30340
C         -0.22494       -0.06138        0.24278
C          0.53301       -1.10614       -0.53618
C          1.76608       -1.50748        0.23295
C          1.77255       -0.19688       -0.49446
C          1.02480        0.85466        0.33176
O          0.92093        2.07119       -0.37667
H         -2.71857        0.11149       -1.70270
H         -2.35514       -1.40723       -0.85057
H         -3.61974       -0.32594       -0.24196
H         -1.82892        1.42445        0.29050
H          0.14659       -1.70071       -1.35482
H          1.74823       -1.53576        1.31969
H          2.35364       -2.29809       -0.22209
H          2.46222        0.04603       -1.29131
H          1.41203        1.01326        1.34895
H          0.44503        2.69920        0.17567
