19
../xyz/dsC7O2H10nsd_1263.xyz
C         -2.26698       -1.00115       -0.07168
C         -1.43073        0.22959       -0.42336
O         -1.80143        1.35748        0.36460
C          0.05741        0.01001       -0.26154
C          0.89418       -1.24327       -0.67886
C          1.72258       -0.65524        0.50066
O          0.44930       -0.29014        1.13526
C          2.18001        0.69636       -0.08041
C          1.04053        1.15362       -0.59945
H         -2.01460       -1.35694        0.93173
H         -3.32761       -0.74006       -0.09832
H         -2.09179       -1.81805       -0.77934
H         -1.62553        0.52194       -1.46314
H         -1.41580        1.21889        1.23890
H          0.40474       -2.18577       -0.42364
H          1.34153       -1.26454       -1.67413
H          2.38875       -1.24260        1.13049
H          3.17326        1.11939       -0.05479
H          0.80208        2.06950       -1.11872
