19
../xyz/dsC7O2H10nsd_2845.xyz
O          2.63439       -0.61261       -0.26993
C          1.34984       -0.08190       -0.52415
C          0.21691       -1.07362       -0.27430
C         -0.11900       -0.39567        1.06074
C          0.77452        0.80552        0.63327
C         -0.19174        1.87445        0.09809
C         -1.30954        1.05299       -0.59857
C         -1.11682       -0.36328       -0.05058
O         -2.23149       -1.19104        0.08264
H          2.58330       -1.10925        0.55539
H          1.42417        0.38922       -1.51095
H          0.22970       -2.13164       -0.51590
H         -0.30261       -0.81350        2.04147
H          1.53604        1.16711        1.32502
H         -0.60937        2.45252        0.92891
H          0.30637        2.57799       -0.57625
H         -2.30935        1.40702       -0.33153
H         -1.23134        1.08736       -1.69117
H         -2.47499       -1.50859       -0.79363
