19
../xyz/dsC7O2H10nsd_3682.xyz
C         -2.66007        0.47576       -0.62912
C         -1.81436       -0.64755       -0.06974
C         -1.15319       -0.50469        1.28649
C         -0.32768       -0.49778        0.03156
C          0.80804       -1.48003       -0.30405
C          1.73250       -0.24513       -0.28768
O          2.88318       -0.06902       -0.00766
C          0.53229        0.71826       -0.40680
O          0.53023        1.91771        0.30745
H         -2.71727        0.42656       -1.72237
H         -3.68305        0.42964       -0.24033
H         -2.24151        1.45015       -0.35876
H         -2.16562       -1.64866       -0.31134
H         -1.27413        0.44378        1.80255
H         -1.10115       -1.37270        1.93601
H          1.05376       -2.25723        0.42347
H          0.72564       -1.93186       -1.29878
H          0.33439        0.96561       -1.45809
H          1.05653        1.79209        1.10543
