19
../xyz/dsC7O2H10nsd_3687.xyz
C          2.58800       -0.92213       -0.52397
C          1.64878       -0.28530        0.49555
C          0.31955       -1.03787        0.85983
C         -0.48037        0.16696        0.34826
C         -1.79669        0.75456        0.82067
C         -1.73864        0.13765       -0.52447
O         -2.40383       -1.07317       -0.68073
C          0.77803        0.88778       -0.01357
O          1.01910        1.94497       -0.53229
H          2.04175       -1.24682       -1.41657
H          3.35085       -0.20541       -0.84249
H          3.09378       -1.79705       -0.10323
H          2.20991        0.01829        1.38697
H          0.15665       -1.95623        0.28807
H          0.19859       -1.26336        1.92150
H         -2.31991        0.19570        1.58951
H         -1.85767        1.83507        0.89508
H         -1.72687        0.79615       -1.39245
H         -1.98108       -1.56071       -1.39595
