19
../xyz/dsC7O2H10nsd_0698.xyz
O          2.92448       -0.09924        0.27983
C          1.74009       -0.04264        0.08969
C          0.98131        1.28018        0.04920
C         -0.38758        1.23379       -0.63965
C         -1.11761       -0.00260       -0.16492
C         -1.91334        0.04926        1.11719
C         -2.61791       -0.09450       -0.21169
C         -0.32307       -1.24060       -0.48399
O          1.03747       -1.19894       -0.01175
H          0.85254        1.56920        1.10019
H          1.65350        2.01796       -0.39420
H         -0.95558        2.14363       -0.42028
H         -0.26174        1.19254       -1.72975
H         -1.88582       -0.81100        1.77750
H         -1.98686        1.00178        1.63172
H         -3.06947       -1.05253       -0.44896
H         -3.16370        0.75934       -0.59889
H         -0.76087       -2.13208       -0.02642
H         -0.28897       -1.40081       -1.57045
