19
../xyz/dsC7O2H10nsd_2142.xyz
C         -2.39206       -0.10694        0.41239
C         -0.92708        0.00793        0.07273
C         -0.31517        1.39174        0.28565
O          1.00088        1.40959       -0.26844
C          1.58411        0.12249       -0.25125
C          1.39715       -0.57105        1.12797
C          0.06757       -1.11366        0.57470
C          0.56805       -0.93976       -0.87023
O         -0.63404       -0.32353       -1.32690
H         -2.98305        0.59090       -0.18951
H         -2.75142       -1.12011        0.21361
H         -2.55974        0.12069        1.47056
H         -0.89629        2.15166       -0.24648
H         -0.29697        1.65424        1.35483
H          2.58448        0.21705       -0.67453
H          2.11488       -1.38405        1.27291
H          1.40234        0.07133        2.01248
H         -0.40365       -2.01673        0.96489
H          0.95921       -1.71800       -1.52780
