19
../xyz/dsC7O2H10nsd_0544.xyz
C          1.69022        1.17401       -0.05836
O          2.49973        0.00321        0.03698
C          1.68003       -1.16441        0.07325
C          0.26965       -0.65305        0.00927
C          0.27299        0.67626       -0.05619
C         -0.98509        1.48601       -0.09990
C         -2.15346        0.58109        0.32542
O         -2.11868       -0.67181       -0.33897
C         -0.99052       -1.46012        0.00457
H          1.90255        1.84407        0.79082
H          1.94171        1.73023       -0.97646
H          1.92874       -1.82259       -0.77560
H          1.88695       -1.73562        0.99294
H         -0.92637        2.35278        0.57159
H         -1.15739        1.88525       -1.10865
H         -2.12358        0.43554        1.41779
H         -3.11708        1.02958        0.06966
H         -1.14104       -1.94582        0.98675
H         -0.94586       -2.26338       -0.74121
