19
../xyz/dsC7O2H10nsd_5714.xyz
C          2.55365        1.43005        0.62756
C          2.45948        0.14407       -0.20033
C          1.22630       -0.67459        0.11228
C          0.61510       -1.59029       -0.88345
C         -0.11062       -0.29192       -0.53864
C         -1.31997       -0.38351        0.29425
O         -1.53230       -1.23680        1.13380
C         -2.39279        0.69638        0.09308
O         -2.30208        1.59837       -0.69759
H          2.57241        1.20809        1.70000
H          3.46289        1.98893        0.38700
H          1.69588        2.08349        0.43839
H          2.47044        0.38693       -1.27029
H          3.34642       -0.47736       -0.02006
H          1.11816       -0.98223        1.14988
H          1.04884       -1.64643       -1.87621
H          0.14525       -2.49858       -0.52284
H         -0.10467        0.51025       -1.26621
H         -3.26750        0.55325        0.76217
