19
../xyz/dsC7O2H10nsd_1745.xyz
O          1.29450        1.57682       -0.81973
C          0.59768        0.55644       -0.18562
C          1.17485       -0.63293        0.68593
C          0.06648       -0.33402        1.73480
C         -0.53109        0.80840        0.85051
C         -1.80878        0.48893        0.08406
O         -1.45845       -0.51556       -0.87081
C         -0.05991       -0.48279       -1.12807
C          0.73490       -1.62035       -0.42042
H          1.70315        2.13350       -0.14827
H          2.20156       -0.68952        1.04814
H         -0.61216       -1.16266        1.95604
H          0.47010        0.04366        2.67722
H         -0.54828        1.79277        1.32396
H         -2.61230        0.08996        0.71341
H         -2.18664        1.38855       -0.42652
H          0.12598       -0.34946       -2.19735
H          0.14326       -2.48905       -0.12111
H          1.58225       -1.94980       -1.02827
