19
../xyz/dsC7O2H10nsd_5236.xyz
C         -2.87520       -0.19890        0.21417
C         -1.74309        0.79244       -0.08846
C         -0.39921        0.14390       -0.13044
O         -0.11485       -0.82885       -1.13998
C          1.27587       -0.78387       -0.72808
C          1.27195       -1.46236        0.66480
C          0.46634       -0.24782        1.11820
C          1.01276        0.61621        0.00199
O          1.65299        1.82240        0.08132
H         -3.84778        0.30177        0.19831
H         -2.89132       -1.00191       -0.52794
H         -2.74192       -0.65626        1.19946
H         -1.93013        1.28483       -1.05137
H         -1.71597        1.58473        0.66914
H          1.97542       -1.04030       -1.52127
H          0.81338       -2.45478        0.70946
H          2.26789       -1.47483        1.11521
H          0.18172        0.05857        2.11697
H          1.52712        2.29209       -0.75182
