19
../xyz/dsC7O2H10nsd_3318.xyz
O         -1.96633       -1.20342        0.07422
C         -0.81948       -0.63372       -0.53260
C          0.47141       -1.21224        0.06747
C          1.65185       -0.69170       -0.78408
C          1.73143        0.82217       -0.40304
C          0.59409        0.99570        0.64537
C          0.62092       -0.37881        1.36307
C         -0.71674        0.85754       -0.10997
O         -1.59214        1.66930       -0.27634
H         -2.68124       -0.56334       -0.03571
H         -0.85942       -0.73611       -1.62782
H          0.43577       -2.29521        0.18899
H          2.57544       -1.21325       -0.52025
H          1.48818       -0.84503       -1.85481
H          2.69095        1.06862        0.05951
H          1.60754        1.48599       -1.26275
H          0.65620        1.89990        1.24934
H          1.56415       -0.55852        1.88663
H         -0.21065       -0.52378        2.05653
