19
../xyz/dsC7O2H10nsd_2356.xyz
O         -0.94763        1.89102       -0.18928
C         -0.54944        0.59333        0.15375
C         -1.68607       -0.27949        0.73128
C         -1.39185       -1.37279       -0.34527
C         -0.28411       -0.47292       -0.96972
C          1.20474       -0.71814       -0.65555
C          1.27162       -0.92096        0.87462
C          0.85940        0.55861        0.79092
O          1.67118        0.66701       -0.43429
H         -0.20778        2.28026       -0.67349
H         -1.57970       -0.57778        1.77778
H         -2.65602        0.20400        0.60252
H         -1.04785       -2.33461        0.04272
H         -2.23003       -1.56294       -1.01804
H         -0.44966       -0.15323       -1.99916
H          1.82193       -1.27822       -1.35795
H          0.62046       -1.64632        1.36474
H          2.30122       -1.02532        1.21757
H          1.09329        1.30404        1.55165
