19
../xyz/dsC7O2H10nsd_1805.xyz
C         -1.16899       -1.17250        1.44650
C         -0.77913       -0.41076        0.22136
C         -0.69026       -0.87864       -1.25833
C         -0.55063        0.65387       -1.21495
O         -1.66512        0.70112       -0.25512
C          0.44683        0.54021        0.00064
C          0.57563        1.77126        0.89360
C          1.80663       -0.06832       -0.22852
O          2.11385       -1.20970        0.01774
H         -0.41326       -1.93681        1.64926
H         -1.23581       -0.50763        2.31311
H         -2.13839       -1.65934        1.30560
H          0.15961       -1.49044       -1.55906
H         -1.63836       -1.22310       -1.67171
H         -0.55312        1.38544       -2.02360
H          1.27723        2.49580        0.46510
H         -0.39967        2.24674        1.00277
H          0.94971        1.49971        1.88681
H          2.56175        0.64757       -0.63109
