19
../xyz/dsC7O2H10nsd_1880.xyz
C         -1.91817       -1.53625       -0.24609
C         -0.72332       -0.67866        0.05564
C         -0.57573        0.12970        1.32658
C         -0.51820        0.84295        0.00441
O         -1.44501        1.80433       -0.35908
C          0.84497        0.67809       -0.70874
C          2.11895        0.46792        0.13487
O          1.82355       -0.94536        0.29209
C          0.67399       -0.84625       -0.59130
H         -1.86564       -2.49595        0.28156
H         -2.84191       -1.03563        0.06048
H         -1.99744       -1.74831       -1.31834
H         -1.51432        0.28103        1.85228
H          0.28979       -0.00191        1.96741
H         -1.39560        2.53272        0.26968
H          0.91351        1.18510       -1.66956
H          3.05375        0.61307       -0.42015
H          2.18434        0.99105        1.09642
H          0.73021       -1.53787       -1.43613
