19
../xyz/dsC7O2H10nsd_2026.xyz
O         -2.45668        0.55605       -0.32700
C         -1.14350        0.24156        0.06363
C         -1.09339       -0.82111        1.12871
C         -0.62932       -1.12944       -0.28465
O          0.71037       -1.40157       -0.58034
C          1.64522       -0.36001       -0.55948
C          2.11496        0.24513        0.74099
C          1.26924        1.05606       -0.22512
C         -0.18401        1.42102        0.04653
H         -2.43678        0.81033       -1.25703
H         -0.35378       -0.73753        1.91583
H         -2.04636       -1.23701        1.43538
H         -1.28097       -1.76107       -0.88017
H          2.38548       -0.52841       -1.33532
H          1.65600       -0.11251        1.65509
H          3.16405        0.50214        0.84234
H          1.80862        1.82275       -0.77323
H         -0.28375        2.01432        0.96411
H         -0.51720        2.07192       -0.77191
