19
../xyz/dsC7O2H10nsd_4994.xyz
C          2.92999        0.04315        0.43993
C          1.93489       -0.49267       -0.59835
C          0.51879       -0.29903       -0.15827
C         -0.29047       -0.94703        0.99687
C         -1.33962       -0.21092        0.12396
C         -2.83011       -0.27861        0.12126
O         -0.59188       -0.69725       -1.08154
C         -0.34386        0.97857        0.03458
O         -0.29586        2.16516       -0.02265
H          3.95765       -0.09442        0.09363
H          2.77245        1.11089        0.61921
H          2.82636       -0.47931        1.39649
H          2.06898        0.02595       -1.55456
H          2.11113       -1.55831       -0.78633
H         -0.35521       -2.03393        0.91080
H         -0.12308       -0.60284        2.02135
H         -3.17612       -1.31252        0.03156
H         -3.22192        0.13893        1.05380
H         -3.23605        0.30155       -0.71218
