19
../xyz/dsC7O2H10nsd_4998.xyz
C         -2.75037       -0.70821        0.00500
O         -1.99125        0.48190        0.00076
C         -0.61612        0.31934        0.00253
C          0.19995       -0.49648       -1.07424
C          1.31591       -0.28657       -0.00702
O          2.45607       -1.07856       -0.08309
C          0.19694       -0.48900        1.08287
C          1.43350        1.25075       -0.00956
C          0.15890        1.64150       -0.00200
H         -2.55783       -1.31478        0.90099
H         -3.80144       -0.41113        0.00055
H         -2.55316       -1.32442       -0.88328
H         -0.09831       -1.54539       -1.16208
H          0.34546       -0.03586       -2.05280
H          3.02026       -0.87052        0.66929
H         -0.10165       -1.53725        1.17847
H          0.33985       -0.01799        2.05797
H          2.35187        1.82114       -0.03023
H         -0.29581        2.62154       -0.00577
