19
../xyz/dsC7O2H10nsd_4128.xyz
C         -2.46206        0.25383       -0.18114
C         -1.04327       -0.07758       -0.63701
C         -0.58290       -1.56095       -0.39619
C          0.70757       -1.33380        0.42777
C          0.23377       -0.24398        1.44316
C          0.07389        0.65353        0.14447
O          0.00955        2.03189        0.13754
C          1.31963       -0.12514       -0.29777
O          2.38022        0.19390       -0.75496
H         -2.61816        0.02071        0.87705
H         -2.67513        1.31680       -0.32699
H         -3.19329       -0.32295       -0.75755
H         -0.95138        0.18522       -1.69658
H         -1.32260       -2.12395        0.18142
H         -0.39789       -2.10213       -1.32749
H          1.30098       -2.19364        0.72707
H         -0.67713       -0.46454        2.00188
H          1.02381        0.11134        2.10713
H          0.91284        2.37142        0.13371
