19
../xyz/dsC7O2H10nsd_2752.xyz
C          2.77318       -0.46116        0.13605
C          1.31078       -0.50742        0.53394
C          0.32821       -0.89134       -0.59267
C         -1.05217       -0.99432       -0.04637
O         -1.95932       -1.76282       -0.21837
C         -1.00173        0.40381        0.63673
C         -2.05941        1.35013        0.07322
C          0.40722        0.55417        0.04050
O          0.79884        1.74643       -0.52068
H          3.21991       -1.45861        0.18094
H          2.90693       -0.09069       -0.88608
H          3.34404        0.18543        0.81289
H          1.14050       -0.92051        1.52821
H          0.70527       -1.31461       -1.51662
H         -1.03449        0.39902        1.73342
H         -3.05406        1.02188        0.38583
H         -1.89627        2.37099        0.42934
H         -2.03548        1.36725       -1.02065
H          1.75107        1.84780       -0.42335
