19
../xyz/dsC7O2H10nsd_3994.xyz
C          2.92307        0.50059       -0.34186
C          1.61580        0.30159        0.41639
C          1.19677       -1.19440        0.57823
C          0.06590       -1.01958       -0.48634
C          0.34243        0.54740       -0.42754
C         -0.96193        0.74225        0.42559
O         -1.89913        1.69712        0.01339
C         -1.32325       -0.70060        0.02693
O         -2.41028       -1.17452       -0.17307
H          2.91999       -0.04971       -1.28983
H          3.08873        1.55858       -0.57145
H          3.77517        0.14496        0.24768
H          1.64180        0.87189        1.35185
H          1.96455       -1.91102        0.27837
H          0.84009       -1.47521        1.57231
H          0.12315       -1.64149       -1.37945
H          0.38314        1.17154       -1.31975
H         -0.72282        0.87573        1.49052
H         -2.69124        1.21040       -0.25117
