19
../xyz/dsC7O2H10nsd_0562.xyz
C         -1.97836       -0.95778        0.29676
O         -2.22202        0.45517        0.15469
C         -1.03715        0.63053       -0.66165
C         -0.00009        1.54908        0.00019
C          1.03723        0.63058        0.66165
O          2.22182        0.45529       -0.15513
C          1.97843       -0.95776       -0.29670
C          0.62738       -0.85606        0.43811
C         -0.62725       -0.85607       -0.43796
H         -1.93689       -1.26753        1.34928
H         -2.74017       -1.55660       -0.21896
H         -1.30742        0.93296       -1.67920
H          0.50923        2.19013       -0.72515
H         -0.50961        2.18964        0.72582
H          1.30785        0.93300        1.67911
H          1.93697       -1.26788       -1.34912
H          2.74039       -1.55625        0.21919
H          0.52672       -1.48808        1.32252
H         -0.52659       -1.48812       -1.32234
