19
../xyz/dsC7O2H10nsd_5748.xyz
C         -2.98964        0.12432       -0.09728
O         -1.78992       -0.61315       -0.13157
C         -0.70677        0.03374        0.48453
C         -0.13007        1.26897       -0.27768
C          1.37668        1.14529       -0.06841
C          2.01148       -0.14196       -0.55686
O          1.00639       -1.12782       -0.79387
C          0.49815       -0.89933        0.56188
C          1.69626        0.00817        0.89741
H         -2.91816        1.06310       -0.66622
H         -3.76562       -0.49887       -0.54821
H         -3.28653        0.36927        0.93544
H         -0.97954        0.32979        1.51432
H         -0.40471        1.19810       -1.33463
H         -0.51279        2.21467        0.11439
H          2.00796        2.02675       -0.05226
H          2.94282       -0.21731       -1.10583
H          0.34261       -1.83702        1.09599
H          2.30571        0.04410        1.78896
