19
../xyz/dsC7O2H10nsd_1200.xyz
C         -1.56529        1.86373       -0.05766
C         -1.04705        0.46876        0.33892
C         -2.07430       -0.55777        0.17158
C         -2.90928       -1.40606        0.00032
C          0.21131        0.08593       -0.46847
C          0.84402       -1.26454       -0.05994
O          2.23922       -0.99922       -0.06697
C          2.34122        0.33508        0.34607
O          1.25951        1.03148       -0.24414
H         -2.42000        2.14864        0.56079
H         -0.76899        2.60010        0.07016
H         -1.88561        1.87241       -1.10399
H         -0.75029        0.49705        1.39693
H         -3.65181       -2.15296       -0.13589
H         -0.03508        0.10146       -1.53729
H          0.50503       -1.56844        0.94237
H          0.63981       -2.07349       -0.76190
H          2.28842        0.41251        1.44802
H          3.28493        0.75388       -0.01529
