19
../xyz/dsC7O2H10nsd_3442.xyz
C         -2.79383       -0.59411       -0.10025
C         -1.33135       -0.25239       -0.01481
C         -0.38314       -1.11023       -0.39292
C          1.09603       -0.85999       -0.34295
O          1.65606       -1.76677        0.61471
C          1.45318        0.56800        0.02471
O          0.99338        1.58240       -0.86981
C          0.42657        1.52561        0.44688
C         -1.02327        1.11905        0.53810
H         -3.32172        0.10126       -0.76565
H         -2.95096       -1.60933       -0.47266
H         -3.27680       -0.51121        0.88203
H         -0.66566       -2.09382       -0.75970
H          1.52032       -1.06833       -1.33991
H          2.60583       -1.80789        0.46029
H          2.47856        0.70116        0.37616
H          0.72299        2.35709        1.08695
H         -1.33240        1.15831        1.59317
H         -1.64086        1.87214        0.02754
