19
../xyz/dsC7O2H10nsd_2316.xyz
O          1.09639        1.54406        0.53971
C          0.55742        0.55504       -0.32258
C          1.66751       -0.47143       -0.69738
O          1.26540       -1.28845        0.46510
C         -0.02750       -0.65403        0.39574
C         -1.14779       -1.16816       -0.53611
C         -1.73171        0.22152       -0.17003
C         -1.12004       -0.02155        1.28069
C         -0.72701        1.14047       -0.94896
H          1.67641        1.09607        1.16884
H          1.53326       -1.02355       -1.63279
H          2.69759       -0.11735       -0.60528
H         -0.91870       -1.36611       -1.58653
H         -1.69785       -2.00443       -0.09961
H         -2.79506        0.43215       -0.27073
H         -0.83871        0.84293        1.88172
H         -1.73847       -0.72250        1.84439
H         -0.83137        1.00280       -2.02811
H         -0.80668        2.20398       -0.71862
