19
../xyz/dsC7O2H10nsd_2529.xyz
C         -2.47142       -1.21749        0.00000
C         -1.10522       -0.61963       -0.00009
C          0.10503       -1.17831       -0.00017
C          1.17837       -0.11827        0.00002
C          2.03825       -0.15124       -1.26873
C          2.03833       -0.15153        1.26869
O          0.42727        1.11796        0.00022
C         -0.91463        0.85899        0.00005
O         -1.74786        1.72308       -0.00004
H         -3.03441       -0.88723        0.87954
H         -3.03832       -0.87811       -0.87347
H         -2.43468       -2.30922       -0.00551
H          0.34053       -2.23602       -0.00044
H          2.73972        0.68751       -1.26839
H          2.61074       -1.08256       -1.31785
H          1.40899       -0.08089       -2.15933
H          2.73902        0.68787        1.26888
H          1.40913       -0.08242        2.15943
H          2.61169       -1.08236        1.31703
