19
../xyz/dsC7O2H10nsd_4022.xyz
O          2.66376        0.01491        0.44458
C          1.56509        0.22265       -0.43193
C          0.84322       -1.10510       -0.80062
C         -0.38021       -1.12190        0.11391
C         -0.34990        0.04114        1.09221
C          0.46230        1.05570        0.23486
C         -0.78564        1.21820       -0.69878
C         -1.39508        0.00478        0.00251
O         -2.75046       -0.21326        0.17163
H          2.31667       -0.38887        1.24878
H          1.98929        0.72208       -1.30805
H          0.57137       -1.14114       -1.86130
H          1.51478       -1.94707       -0.60916
H         -0.79713       -2.06016        0.46328
H         -0.45057       -0.02413        2.16705
H          0.83095        1.96399        0.70929
H         -1.34622        2.12354       -0.45431
H         -0.62260        1.17599       -1.78280
H         -3.07154       -0.73027       -0.57544
