19
../xyz/dsC7O2H10nsd_4718.xyz
O          2.90694       -0.98929       -0.17695
C          1.61982       -1.08885        0.38936
C          0.60963       -0.10479       -0.25012
C          1.10981        1.26367       -0.11036
C          1.57211        2.36457        0.03822
C         -0.77808       -0.26926        0.35154
C         -1.70090       -1.37026       -0.13852
C         -2.00667        0.08035       -0.42396
O         -3.02038        0.72683        0.28679
H          3.18644       -0.07051       -0.08109
H          1.27669       -2.11239        0.21245
H          1.63604       -0.92178        1.47801
H          0.56437       -0.34607       -1.32102
H          1.94853        3.35098        0.15413
H         -0.84334       -0.04335        1.41184
H         -1.37086       -2.00010       -0.95882
H         -2.31374       -1.86935        0.60382
H         -1.86515        0.42856       -1.44778
H         -3.86579        0.43114       -0.06729
