19
../xyz/dsC7O2H10nsd_0189.xyz
C         -1.21005       -0.00000        1.17380
C         -1.14653       -1.03038        0.02540
C          0.20759       -1.66307       -0.27328
C          1.40820       -0.73839       -0.32143
O          1.75402        0.00000        0.85964
C          1.40820        0.73839       -0.32143
C          0.20759        1.66307       -0.27328
C         -1.14654        1.03038        0.02541
O         -1.45381        0.00000       -0.94753
H         -2.17964       -0.00000        1.67479
H         -0.40192       -0.00000        1.90118
H         -1.91914       -1.80744        0.03390
H          0.41158       -2.45288        0.46324
H          0.13564       -2.16028       -1.24920
H          2.27650       -1.20858       -0.78992
H          2.27650        1.20859       -0.78992
H          0.41158        2.45289        0.46324
H          0.13564        2.16028       -1.24920
H         -1.91914        1.80744        0.03390
