19
../xyz/dsC7O2H10nsd_0482.xyz
C          2.39253       -0.73750       -0.00105
C          2.08578        0.77637        0.00265
C          0.63242        0.31691        0.01722
O          0.98405       -1.06882        0.05242
C         -0.53011        0.90339        0.77055
C         -1.64685       -0.05330        1.16752
C         -1.94432       -0.82602       -0.13767
O         -1.52240        0.01030       -1.22171
C         -0.52817        0.87463       -0.75342
H          2.86194       -1.12258       -0.91300
H          2.93032       -1.12021        0.87303
H          2.41281        1.31383        0.89545
H          2.39893        1.32581       -0.88753
H         -0.38904        1.81359        1.34501
H         -1.36583       -0.73618        1.97408
H         -2.51490        0.52601        1.49797
H         -1.38062       -1.76429       -0.15763
H         -3.00650       -1.04287       -0.28094
H         -0.40797        1.74812       -1.38691
