19
../xyz/dsC7O2H10nsd_0362.xyz
C         -2.70431        0.64965       -0.33647
O         -2.59591       -0.80180       -0.34499
C         -1.43277       -0.72731        0.47980
C         -1.41347        0.78341        0.46336
C         -0.31411       -0.01413       -0.22254
C          1.03983       -0.00627        0.43013
C          2.07796        1.04413       -0.03821
O          3.05076        0.02023       -0.32401
C          2.09572       -1.02688       -0.06149
H         -2.72597        1.07252       -1.34794
H         -3.59797        0.96128        0.21578
H         -1.31527       -1.46301        1.26797
H         -1.21870        1.49905        1.25094
H         -0.30829       -0.05457       -1.31180
H          0.93392       -0.01774        1.51931
H          1.78384        1.59694       -0.94136
H          2.43749        1.75653        0.71346
H          1.81179       -1.56502       -0.97650
H          2.46734       -1.74902        0.67470
