19
../xyz/dsC7O2H10nsd_2367.xyz
C         -0.17657        2.00565       -0.73314
C          0.40265        0.70288       -0.26308
C          1.90183        0.38242       -0.25623
O          1.77383       -0.37601        0.98090
C          0.40157       -0.03871        1.03424
C         -0.35804       -0.64173       -0.17374
C          0.12627       -1.90520       -0.85618
C         -1.82457       -0.53097        0.02725
O         -2.39775        0.38377        0.57908
H         -1.20749        2.12061       -0.39785
H          0.40870        2.84498       -0.34171
H         -0.15843        2.06745       -1.82758
H          2.32296       -0.21226       -1.07320
H          2.51365        1.27487       -0.08780
H         -0.07487        0.12335        1.99369
H         -0.53823       -2.74406       -0.62403
H          0.15751       -1.79767       -1.94579
H          1.12498       -2.17434       -0.50586
H         -2.39615       -1.41112       -0.34432
