19
../xyz/dsC7O2H10nsd_5896.xyz
C         -3.89359        0.51071       -0.30839
C         -2.59381        0.16611        0.42209
C         -1.41905       -0.02558       -0.53778
C         -0.11897       -0.34318        0.16844
O          0.05085       -0.36477        1.35980
O          0.85609       -0.61018       -0.73887
C          2.16498       -0.88039       -0.19930
C          2.96561        0.33105       -0.08339
C          3.63802        1.32205        0.00586
H         -3.79531        1.43995       -0.88088
H         -4.17924       -0.28025       -1.01099
H         -4.71880        0.64151        0.39787
H         -2.34188        0.95334        1.14008
H         -2.72489       -0.74594        1.01459
H         -1.61688       -0.82564       -1.26149
H         -1.25144        0.87552       -1.14213
H          2.05782       -1.36145        0.77663
H          2.62562       -1.58119       -0.90074
H          4.23034        2.19916        0.09441
