19
../xyz/dsC7O2H10nsd_0273.xyz
C          1.73232       -1.24208       -0.42107
C          1.89872       -0.06557        0.49660
O          1.64482        1.22400       -0.00325
C          0.36141        1.20392       -0.61441
C         -0.45002        0.05369        0.02625
C         -1.61124        0.40095        0.99357
C         -2.51314       -0.25079       -0.06932
O         -1.38285       -0.52303       -0.92416
C          0.62657       -0.86590        0.55608
H          1.56963       -1.07646       -1.48021
H          2.30012       -2.13642       -0.18910
H          2.65257       -0.05989        1.27459
H         -0.09558        2.18804       -0.47886
H          0.42992        1.00407       -1.69318
H         -1.57479       -0.10783        1.95852
H         -1.76954        1.46792        1.15918
H         -3.02270       -1.17135        0.23970
H         -3.24102        0.41039       -0.55428
H          0.38783       -1.53162        1.37682
