19
../xyz/dsC7O2H10nsd_0977.xyz
O          2.30063       -1.11949        0.74301
C          2.56128       -0.42485       -0.20205
O          1.91194        0.67752       -0.59418
C          0.77995        1.11004        0.20154
C         -0.53065        0.66338       -0.41856
C         -1.77119        1.12936        0.42001
C         -2.14720       -0.33730        0.65159
C         -2.32345       -1.04503       -0.66226
C         -0.93110       -0.79896       -0.15597
H          3.39824       -0.59957       -0.89616
H          0.89308        0.72503        1.21791
H          0.84746        2.20156        0.21152
H         -0.54058        0.95769       -1.47449
H         -1.46834        1.64317        1.33731
H         -2.51065        1.75056       -0.09603
H         -2.54475       -0.74175        1.57420
H         -2.66692       -2.07235       -0.59539
H         -2.69717       -0.50742       -1.53198
H         -0.23668       -1.60106        0.05672
