19
../xyz/dsC7O2H10nsd_1579.xyz
C          2.55826       -0.43339        0.28374
C          1.07328       -0.25590       -0.00658
O          0.64226       -1.48383       -0.58588
C          0.76939        0.94445       -0.93434
O         -0.47449        1.52080       -0.51626
C         -0.99921        0.79429        0.59705
C          0.22433        0.10613        1.23158
C         -2.03431       -0.16055        0.16801
C         -2.87543       -0.94137       -0.19433
H          2.97914        0.46068        0.75175
H          2.70986       -1.28662        0.95035
H          3.10241       -0.63270       -0.64427
H         -0.31353       -1.44629       -0.71953
H          1.54408        1.71832       -0.86793
H          0.69795        0.60657       -1.97391
H         -1.45742        1.52396        1.27340
H          0.75097        0.83155        1.85882
H         -0.02398       -0.77289        1.82765
H         -3.62950       -1.62025       -0.50987
