19
../xyz/dsC7O2H10nsd_2860.xyz
C          1.14404        1.81360        0.00273
C          0.40230        0.52069       -0.21512
C          1.10875       -0.80325       -0.32164
O          2.48521       -0.74592       -0.07116
C          0.18692       -0.54823        0.85883
C         -1.33437       -0.72295        0.70257
C         -1.58759       -0.85312       -0.81585
C         -1.06574        0.59612       -0.70431
O         -1.78468        0.67690        0.57925
H          1.36978        2.30721       -0.95014
H          0.53876        2.49825        0.60569
H          2.09012        1.63530        0.51664
H          0.83862       -1.52290       -1.09165
H          2.74075       -1.56799        0.36017
H          0.62579       -0.45079        1.84521
H         -1.87693       -1.29410        1.45527
H         -1.07245       -1.60278       -1.41756
H         -2.65653       -0.85553       -1.02584
H         -1.32805        1.38837       -1.40579
