19
../xyz/dsC7O2H10nsd_0378.xyz
C          2.04376        0.64069       -0.68875
C          2.30383       -0.25580        0.50218
C          0.90799       -0.07981       -0.02159
C          0.10619       -1.23030       -0.66274
C         -1.28668       -0.91688       -0.07727
O         -1.82999        0.21118       -0.76167
C         -1.14251        1.33865       -0.19062
C         -0.17036        0.64624        0.78497
O         -0.99918       -0.44536        1.22660
H          2.13100        1.71367       -0.54529
H          2.36237        0.30065       -1.66864
H          2.79343       -1.20846        0.32665
H          2.56650        0.21122        1.44633
H          0.09165       -1.20316       -1.75464
H          0.45993       -2.21217       -0.33378
H         -2.02081       -1.72141       -0.05383
H         -0.63306        1.91045       -0.97270
H         -1.86060        1.98427        0.32801
H          0.16967        1.24166        1.63144
