19
../xyz/dsC7O2H10nsd_3470.xyz
C         -2.76169       -0.29776        0.31804
C         -1.41831        0.03153       -0.33702
C         -1.00411        1.48608       -0.25222
C          0.29020        1.64554        0.03465
C          0.94120        0.32338        0.19389
C          2.29996        0.03821        0.65283
O          1.98519       -0.04915       -0.74623
C         -0.20327       -0.69550        0.31102
O          0.12900       -1.94686       -0.23325
H         -2.96701       -1.37065        0.25199
H         -2.76257       -0.01641        1.37713
H         -3.58525        0.23363       -0.17025
H         -1.46458       -0.26718       -1.39418
H         -1.70477        2.29645       -0.42745
H          0.82612        2.58411        0.10612
H          2.97026        0.85317        0.92275
H          2.50392       -0.91498        1.13929
H         -0.42966       -0.84633        1.37569
H          0.83608       -1.77265       -0.87251
