19
../xyz/dsC7O2H10nsd_4586.xyz
O          0.71224        2.08020        0.20945
C          0.05153        0.93397       -0.28172
C         -1.43762        1.09794        0.02779
O         -2.18516       -0.01750       -0.41661
C         -1.78586       -1.22036        0.21801
C         -0.31850       -1.55202       -0.06057
C          0.57267       -0.36856        0.37601
C          1.98547       -0.56515        0.07090
C          3.14963       -0.68021       -0.21107
H          1.65826        1.94656        0.07680
H          0.17315        0.83816       -1.37230
H         -1.56051        1.25347        1.11298
H         -1.83357        1.97566       -0.48880
H         -1.95200       -1.14623        1.30706
H         -2.44297       -2.00367       -0.16983
H         -0.02722       -2.46367        0.47116
H         -0.18120       -1.73699       -1.13145
H          0.46781       -0.23293        1.46240
H          4.17767       -0.80558       -0.44672
