19
../xyz/dsC7O2H10nsd_3804.xyz
C         -0.76965        1.90691       -0.40043
C         -0.04272        0.72686        0.17638
C          1.35146        0.78555        0.83092
C          1.68108       -0.62068        0.21975
O          2.74187       -0.64810       -0.70449
C          0.27176       -0.64203       -0.38739
C         -0.74395       -0.51583        0.74413
C         -2.16010       -0.76335        0.38869
O         -2.64680       -0.58500       -0.70574
H         -1.66428        1.59552       -0.94232
H         -1.06694        2.60786        0.38846
H         -0.11963        2.45094       -1.09514
H          1.99351        1.54908        0.38112
H          1.38409        0.89633        1.91962
H          1.89955       -1.41874        0.93570
H          2.56795        0.01383       -1.38331
H         -0.03279       -1.09605       -1.32378
H         -0.46682       -0.85153        1.74185
H         -2.78243       -1.14696        1.22731
