19
../xyz/dsC7O2H10nsd_4843.xyz
C          2.79554       -0.05023       -0.57927
C          1.79656        0.31418        0.52518
C          0.38464       -0.19699        0.24192
O          0.37680       -1.61090        0.18173
C         -0.84459        0.45465        0.99228
C         -0.71402        1.65186       -0.01159
C         -0.47105        0.40092       -0.92456
C         -1.67165       -0.17973       -0.14410
O         -2.71380       -0.72036       -0.33026
H          3.81202        0.23883       -0.29683
H          2.78321       -1.12549       -0.77385
H          2.54997        0.46165       -1.51535
H          2.11872       -0.13423        1.47634
H          1.80476        1.39343        0.69559
H          0.74667       -1.95497        1.00218
H         -1.03876        0.49456        2.06282
H         -1.62044        2.22562       -0.20549
H          0.14237        2.30728        0.13387
H         -0.25512        0.37551       -1.99018
