19
../xyz/dsC7O2H10nsd_5867.xyz
C         -4.18013       -0.23192       -0.21888
O         -2.78758       -0.34889       -0.39902
C         -2.06738        0.48018        0.49225
C         -0.63522        0.32520        0.28000
C          0.55271        0.19960        0.12957
C          1.97834        0.08722       -0.07164
C          2.70625        1.37335       -0.40355
C          2.53317       -1.21484       -0.49951
O          2.66804       -0.78379        0.84957
H         -4.48806       -0.52549        0.79741
H         -4.53203        0.79647       -0.39968
H         -4.65582       -0.90034       -0.93969
H         -2.35261        1.53762        0.35016
H         -2.31461        0.22824        1.53867
H          3.77440        1.17878       -0.52689
H          2.31244        1.81023       -1.32609
H          2.57505        2.10276        0.40107
H          1.86031       -2.05473       -0.66126
H          3.45076       -1.22494       -1.08751
