19
../xyz/dsC7O2H10nsd_1522.xyz
C         -1.56870        1.49504       -0.48910
C         -1.26285        0.10124        0.02565
C         -2.11777       -1.01513       -0.54109
C         -0.76918       -0.04113        1.44859
C          0.18800       -0.23802        0.30378
O          0.79196       -1.49876       -0.01692
C          2.03903       -0.87464       -0.40756
C          1.44058        0.49794       -0.05180
O          1.80878        1.63609       -0.05492
H         -0.84763        2.22803       -0.11811
H         -1.54003        1.52276       -1.58390
H         -2.57097        1.80675       -0.17278
H         -1.78654       -1.99430       -0.18757
H         -3.16569       -0.87764       -0.25190
H         -2.07003       -1.02267       -1.63536
H         -0.64061        0.84842        2.05756
H         -1.03625       -0.94204        1.99173
H          2.88382       -1.19558        0.21201
H          2.27338       -1.02406       -1.46778
