19
../xyz/dsC7O2H10nsd_1821.xyz
O          2.13192       -1.01516       -0.09881
C          0.93646       -0.28327       -0.04331
C          0.88373        1.01154       -0.89678
C         -0.11446        1.52357        0.18281
C          0.63627        0.61808        1.19308
O         -1.45047        1.07151       -0.03482
C         -1.55275       -0.26348       -0.45904
C         -1.42446       -1.41871        0.50755
C         -0.29586       -1.08831       -0.45230
H          2.00837       -1.82933        0.40185
H          1.82424        1.56479       -0.84520
H          0.53902        0.93489       -1.93018
H         -0.18769        2.59336        0.37513
H          1.56261        1.08784        1.53269
H          0.08482        0.22736        2.04918
H         -2.26067       -0.36292       -1.27587
H         -1.30971       -1.20259        1.56234
H         -2.01510       -2.30396        0.29560
H         -0.11110       -1.75677       -1.28865
