19
../xyz/dsC7O2H10nsd_0627.xyz
C         -2.50493        0.17424       -0.11531
C         -1.67040       -1.13407       -0.06668
C         -0.28990       -0.70471        0.45413
O          0.76899       -1.38156       -0.22854
C          1.99825       -0.75253        0.02732
O          2.05257        0.57154       -0.43946
C          1.10914        1.41246        0.23134
C         -0.24473        0.78085        0.16978
C         -1.44654        1.25533       -0.14469
H         -3.17081        0.21484       -0.98428
H         -3.14939        0.27652        0.76857
H         -2.13193       -1.91896        0.53617
H         -1.52602       -1.52581       -1.07759
H         -0.17436       -0.89635        1.53689
H          2.21268       -0.77465        1.11444
H          2.76226       -1.30964       -0.51813
H          1.42530        1.54863        1.28112
H          1.14448        2.38624       -0.26312
H         -1.67010        2.28992       -0.38543
