19
../xyz/dsC7O2H10nsd_3699.xyz
O          2.37575       -1.22167       -0.35410
C          1.90420       -0.20719        0.48546
C          1.73904        1.19706       -0.06008
C          0.54052        0.31185        0.19004
C         -0.61547        0.49753        1.19725
C         -1.56290       -0.06004        0.12014
O         -2.59387       -0.94377        0.38470
C         -1.48988        0.74302       -1.14840
C         -0.40128       -0.26864       -0.84306
H          3.31309       -1.06666       -0.51055
H          2.19028       -0.30932        1.53386
H          1.92462        2.03391        0.60630
H          2.02777        1.35883       -1.09418
H         -0.53253       -0.18174        2.05018
H         -0.81502        1.51349        1.55666
H         -3.40279       -0.43562        0.51074
H         -2.19390        0.42281       -1.91049
H         -1.27325        1.80934       -1.14110
H         -0.17869       -1.10304       -1.49440
