19
../xyz/dsC7O2H10nsd_0020.xyz
C         -3.25624       -0.51162        0.41455
C         -1.74642       -0.52471        0.67071
C         -0.91404        0.00427       -0.51381
O         -1.24433        1.35662       -0.82855
C          0.55418       -0.02826       -0.21625
C          1.47048       -0.92915       -0.65951
O          2.70163       -0.66257       -0.14739
C          2.56745        0.44184        0.63523
C          1.28202        0.87439        0.63535
H         -3.80048       -0.94776        1.25726
H         -3.63747        0.50779        0.28538
H         -3.51662       -1.08789       -0.48122
H         -1.50995        0.07647        1.55639
H         -1.41486       -1.54751        0.88439
H         -1.10946       -0.64450       -1.38469
H         -2.18009        1.38712       -1.05023
H          1.40932       -1.78235       -1.31526
H          3.47057        0.79032        1.10845
H          0.88600        1.73528        1.14940
