19
../xyz/dsC7O2H10nsd_0961.xyz
O         -3.89929        0.48149       -0.06697
C         -2.97473       -0.28796       -0.02429
C         -1.57948        0.05366        0.44271
C         -0.52475       -0.25256       -0.64229
C          0.87003       -0.05649       -0.13595
C          1.62266        1.25832        0.15495
C          2.96598        0.49686       -0.12768
C          2.13728       -0.76686       -0.38988
O          1.37548       -1.02289        0.80025
H         -3.09813       -1.34887       -0.34917
H         -1.55679        1.10448        0.74421
H         -1.35573       -0.56627        1.32176
H         -0.63228       -1.29038       -0.97896
H         -0.69150        0.39258       -1.51309
H          1.42380        2.04188       -0.58048
H          1.48396        1.65814        1.16190
H          3.48007        0.86971       -1.01654
H          3.67427        0.42000        0.70017
H          2.36095       -1.61986       -1.02138
