19
../xyz/dsC7O2H10nsd_5126.xyz
O         -2.68278       -0.90184        0.24939
C         -1.71151       -0.43612       -0.68012
C         -0.56700        0.26518       -0.01106
C         -0.62510        1.72968        0.35676
C          0.45562        1.26591       -0.58044
C          1.56290        0.60994        0.22823
O          2.23293       -0.44606       -0.48273
C          1.35889       -1.44936        0.07930
C          0.52380       -0.39829        0.83275
H         -2.96690       -0.14265        0.76960
H         -1.36648       -1.33143       -1.20879
H         -2.15989        0.23095       -1.43451
H         -1.42422        2.29680       -0.11172
H         -0.37928        2.06067        1.36358
H          0.55497        1.63978       -1.59256
H          2.26006        1.23860        0.79008
H          0.84318       -2.03619       -0.69055
H          1.91245       -2.13383        0.73400
H          0.33929       -0.56118        1.89502
