19
../xyz/dsC7O2H10nsd_4377.xyz
C         -2.09667       -1.10693       -0.44662
C         -0.82586       -0.32758       -0.10706
C          0.32534       -0.52832       -1.12395
C          1.60242       -0.37859       -0.28260
O          2.16837        0.89840       -0.53887
C          1.08336       -0.53176        1.17517
O         -0.28907       -0.88801        1.09983
C         -1.13627        1.10070        0.08105
C         -1.41669        2.25812        0.24333
H         -2.84072       -0.97857        0.34272
H         -2.52267       -0.74933       -1.38756
H         -1.85866       -2.17011       -0.53876
H          0.25307       -1.53913       -1.53412
H          0.31433        0.19041       -1.94382
H          2.32694       -1.16687       -0.52797
H          2.92300        1.01669        0.04672
H          1.59229       -1.31545        1.74404
H          1.21402        0.43075        1.69174
H         -1.64983        3.28473        0.38345
