19
../xyz/dsC7O2H10nsd_0110.xyz
C          0.64093        0.60121       -0.44261
C          1.77118       -0.36820       -0.19099
C          2.87338       -0.06065        0.73008
O          3.05922        0.00793       -0.68475
C         -0.57585        0.31827        0.45086
O         -1.05277       -1.01424        0.22220
C         -2.43301       -0.99924       -0.13468
C         -2.81176        0.45431       -0.16814
C         -1.76603        1.19746        0.17173
H          0.99673        1.62293       -0.26454
H          0.32894        0.53848       -1.49188
H          1.52068       -1.41634       -0.34925
H          2.88952        0.89766        1.24922
H          3.40349       -0.86736        1.23453
H         -0.25982        0.40115        1.50526
H         -2.57331       -1.49764       -1.10625
H         -3.01932       -1.56641        0.60616
H         -3.80362        0.80232       -0.42711
H         -1.72795        2.27678        0.24672
