19
../xyz/dsC7O2H10nsd_0802.xyz
O          2.69207       -0.80264       -0.53429
C          2.02524        0.17499       -0.29778
C          0.64595        0.15354        0.25166
C          0.25031        1.39169        1.05699
C         -0.28408        1.23425       -0.32421
O         -1.63603        0.95235       -0.49533
C         -1.95059       -0.42360       -0.69971
C         -1.46159       -1.26567        0.47283
C          0.07277       -1.22263        0.55227
H          2.42286        1.19942       -0.49218
H         -0.44826        1.23675        1.87124
H          1.01530        2.13876        1.24398
H          0.11819        1.87317       -1.10878
H         -3.03857       -0.45703       -0.79762
H         -1.50978       -0.78263       -1.64326
H         -1.91877       -0.87668        1.39037
H         -1.79796       -2.30174        0.36042
H          0.42349       -1.57423        1.52859
H          0.49714       -1.90891       -0.18812
