19
../xyz/dsC7O2H10nsd_1680.xyz
C          0.56939        1.98112       -0.15210
C          0.29083        0.51975        0.18817
C         -1.10640        0.34582        0.82848
C         -2.19040        0.20117       -0.21801
O         -2.92604       -0.74833       -0.30883
C          0.80380       -0.53883       -0.85619
C          0.88898       -1.62189        0.24155
C          1.49209       -0.29966        0.77702
O          2.19352       -0.15129       -0.51796
H          0.56291        2.59314        0.75717
H          1.53855        2.08653       -0.63869
H         -0.20194        2.38466       -0.81774
H         -1.17221       -0.51387        1.49638
H         -1.32478        1.24480        1.41998
H         -2.26273        1.04645       -0.94039
H          0.55733       -0.63996       -1.91427
H         -0.02823       -2.02248        0.67206
H          1.63145       -2.39420        0.04252
H          2.07009       -0.11295        1.68383
