19
../xyz/dsC7O2H10nsd_0402.xyz
C         -2.32515       -0.10462       -0.46002
O         -1.88242       -0.18267        0.90038
C         -0.90809        0.06111       -0.12609
C         -0.23772        1.43272       -0.16880
C          1.24492        1.38072        0.29190
C          1.79888       -0.02940        0.04712
C          1.05985       -1.07785        0.90285
C          0.09787       -1.06564       -0.29933
O          1.17164       -0.58159       -1.15515
H         -2.67649       -1.04109       -0.89277
H         -2.92763        0.77036       -0.70373
H         -0.26251        1.77946       -1.20570
H         -0.82376        2.13798        0.42614
H          1.82659        2.12369       -0.26215
H          1.34546        1.62494        1.35543
H          2.88960       -0.06555       -0.00818
H          1.60979       -2.01706        0.97823
H          0.66657       -0.78045        1.87660
H         -0.34475       -2.00051       -0.65153
