19
../xyz/dsC7O2H10nsd_3407.xyz
O          2.53844       -0.72634       -0.44946
C          1.17039       -0.58207       -0.63428
C          0.19926       -0.86756        0.50054
C         -1.18277       -1.44398        0.20046
C         -2.29918       -0.38238        0.25482
C         -1.91196        0.89384       -0.45666
C         -0.64924        1.31585       -0.54881
C          0.46999        0.56166        0.05988
O          1.38374        1.33246        0.81147
H          2.80349       -0.00898        0.14333
H          0.85222       -0.84646       -1.64002
H          0.67496       -1.16138        1.43191
H         -1.18142       -1.88883       -0.80229
H         -1.40562       -2.25882        0.89682
H         -3.21839       -0.78900       -0.18143
H         -2.54826       -0.14940        1.30096
H         -2.71076        1.48390       -0.89886
H         -0.39629        2.24326       -1.05646
H          0.97367        1.55460        1.65422
