19
../xyz/dsC7O2H10nsd_0249.xyz
C          1.87736       -1.01419       -0.45967
C          1.62117       -0.14267        0.75721
C          1.47504        1.31410        0.29744
C          0.25323        0.90538       -0.59556
C         -1.10079        1.33581       -0.01875
O         -2.07824        0.31956       -0.23252
C         -1.71597       -0.86095        0.41992
O         -0.55234       -1.45641       -0.12840
C          0.49039       -0.55526       -0.21141
H          2.45853       -0.64226       -1.30232
H          2.03238       -2.06449       -0.23200
H          1.87050       -0.47940        1.75546
H          1.20296        2.01362        1.09191
H          2.33707        1.71943       -0.24205
H          0.31013        1.13274       -1.66550
H         -1.00833        1.52134        1.06404
H         -1.48361        2.24373       -0.49082
H         -1.55228       -0.66436        1.49550
H         -2.52534       -1.57882        0.27804
