19
../xyz/dsC7O2H10nsd_4749.xyz
C         -0.73998        1.99200       -0.74413
O          0.14461        0.90346       -0.95252
C          0.61974        0.21090        0.20790
C          1.45345        1.12424        1.12790
C         -0.56261       -0.41954        0.99574
C         -1.50510       -1.17701        0.08271
O         -2.69011       -0.96860        0.02187
C          1.48545       -0.85609       -0.31728
C          2.20992       -1.73209       -0.70506
H         -0.29135        2.79042       -0.13930
H         -0.95371        2.39211       -1.73774
H         -1.68695        1.68118       -0.28576
H          2.24665        1.60269        0.54871
H          0.82994        1.89545        1.58738
H          1.91053        0.53545        1.92686
H         -0.15060       -1.11689        1.73522
H         -1.13112        0.34607        1.52959
H         -1.02139       -1.95697       -0.54231
H          2.84677       -2.50282       -1.06419
