19
../xyz/dsC7O2H10nsd_4924.xyz
C         -3.62303       -0.29417       -0.10762
C         -2.17465       -0.21631        0.00647
C         -0.97537       -0.14251        0.08839
C          0.46975       -0.06530        0.22026
C          0.94568        1.31730        0.69053
O          0.71995        2.28568       -0.30472
C          1.17698       -1.26953        0.90468
C          1.92426       -1.42426       -0.43193
O          1.15999       -0.35935       -1.04314
H         -3.93340       -0.27953       -1.15819
H         -4.01143       -1.21532        0.34054
H         -4.10684        0.55172        0.39268
H          0.39752        1.62555        1.58649
H          2.01518        1.24174        0.94964
H          1.07323        1.90591       -1.12005
H          1.78357       -1.01310        1.77528
H          0.50617       -2.09087        1.15282
H          2.99584       -1.19380       -0.40368
H          1.77885       -2.37418       -0.95732
