19
../xyz/dsC7O2H10nsd_3865.xyz
O          2.33668       -1.36050       -0.35513
C          1.85307       -0.18202        0.24349
C          0.55037       -0.35884        1.09597
C         -0.19876        0.55932        0.11721
C          0.48016        1.89916        0.06939
C          1.09220        0.76076       -0.69894
C         -1.57810        0.33321       -0.36934
C         -2.60503       -0.33153        0.44539
O         -1.95247       -1.03133       -0.61616
H          1.60561       -1.76963       -0.83325
H          2.71150        0.25742        0.76131
H          0.20826       -1.39539        1.04261
H          0.57696       -0.03983        2.14324
H         -0.00753        2.65544       -0.53901
H          0.96658        2.29367        0.95921
H          1.22962        0.79967       -1.77393
H         -1.91638        1.02823       -1.14022
H         -2.35387       -0.66986        1.44971
H         -3.65791       -0.10542        0.28167
