19
../xyz/dsC7O2H10nsd_2523.xyz
C          1.71945        1.77985       -0.00006
C          0.49468        0.92673       -0.00024
C         -0.78568        1.30422       -0.00026
C         -1.65475        0.10990        0.00005
O         -2.85090        0.02237        0.00017
O         -0.83476       -0.99196        0.00019
C          0.55110       -0.59337       -0.00001
C          1.20128       -1.15744        1.26944
C          1.20094       -1.15793       -1.26941
H          2.34038        1.57941        0.88101
H          2.34381        1.57530       -0.87770
H          1.46268        2.84134       -0.00294
H         -1.18719        2.30760       -0.00047
H          1.11064       -2.24673        1.27736
H          2.26369       -0.89991        1.31110
H          0.70808       -0.76176        2.16104
H          1.10967       -2.24716       -1.27711
H          0.70792       -0.76216       -2.16107
H          2.26349       -0.90104       -1.31117
