19
../xyz/dsC7O2H10nsd_2342.xyz
C         -1.22210        1.90150       -0.49458
C         -0.90190        0.54671        0.09224
C         -2.05960       -0.44599        0.34343
O         -1.37614       -1.50879       -0.36821
C         -0.27443       -0.65132       -0.68509
C          0.88126       -0.73484        0.37535
C          0.23219        0.44202        1.15239
C          2.23420       -0.46034       -0.22194
O          2.81314        0.59703       -0.17573
H         -0.31275        2.41063       -0.82966
H         -1.90095        1.81727       -1.35015
H         -1.70359        2.54422        0.25242
H         -2.26452       -0.70869        1.38874
H         -3.00235       -0.18478       -0.15399
H         -0.01301       -0.66908       -1.74765
H          0.89109       -1.71523        0.86054
H         -0.08992        0.22388        2.17327
H          0.89119        1.31312        1.16125
H          2.67098       -1.32370       -0.77419
