19
../xyz/dsC7O2H10nsd_4945.xyz
C         -2.10082       -1.45410       -0.29509
O         -1.29371       -0.83302        0.69745
C         -0.16126       -0.24819        0.18100
C         -0.10042        1.13263       -0.42927
C         -1.30860        2.02814       -0.24934
C          0.69798        0.81237        0.82932
C          1.95573       -0.05512        0.51229
O          2.04273       -0.29501       -0.90446
C          1.14106       -1.08519       -0.12003
H         -1.55115       -2.24367       -0.82587
H         -2.95214       -1.90064        0.22291
H         -2.46312       -0.72553       -1.03144
H          0.45162        1.26842       -1.35268
H         -1.86076        1.77914        0.66128
H         -1.00632        3.07893       -0.18994
H         -1.99804        1.92999       -1.09467
H          0.53929        1.33226        1.76478
H          2.87405       -0.11328        1.08363
H          1.23240       -2.16462       -0.15525
