19
../xyz/dsC7O2H10nsd_0315.xyz
C          1.16419        1.51504        0.60869
C          1.15292        0.71272       -0.67602
O          1.76372       -0.54809       -0.73382
C          1.21775       -1.36405        0.30781
C         -0.14186       -0.75585        0.69337
C         -1.35898       -1.19050       -0.13783
O         -2.22301       -0.05863       -0.19128
C         -1.44732        1.14123       -0.11221
C         -0.04244        0.69268        0.22715
H          1.77978        1.18944        1.44164
H          1.08889        2.59356        0.50587
H          1.17447        1.22205       -1.63321
H          1.14967       -2.38962       -0.07039
H          1.89330       -1.36997        1.17405
H         -0.34291       -0.86341        1.76370
H         -1.03626       -1.48761       -1.14906
H         -1.92314       -2.01778        0.30212
H         -1.48968        1.68874       -1.06488
H         -1.88538        1.78072        0.66519
