19
../xyz/dsC7O2H10nsd_2456.xyz
O          1.74362        1.34357       -0.04202
C          0.52926        0.64925       -0.06789
C         -0.74165        1.47561       -0.31595
C         -1.86790        0.56836        0.25131
C         -1.13603       -0.76659        0.42762
O         -0.69476       -1.16373       -0.90306
C          0.65374       -0.67961       -0.88573
C          1.24305       -1.34719        0.37720
C          0.22516       -0.40951        1.06874
H          1.68518        2.02985        0.63169
H         -0.67690        2.43520        0.20971
H         -0.87448        1.69707       -1.37841
H         -2.24049        0.93691        1.21413
H         -2.71947        0.46583       -0.42491
H         -1.71499       -1.57317        0.88192
H          1.09516       -0.72937       -1.88033
H          1.11284       -2.42748        0.46663
H          2.27113       -1.04491        0.57576
H          0.23745       -0.17054        2.13271
