19
../xyz/dsC7O2H10nsd_0695.xyz
O          0.93362        1.88385       -0.24037
C          1.32221        0.78930        0.04811
C          2.69704        0.09610        0.01229
C          1.92908       -1.25272       -0.11702
C          0.61920       -0.56123        0.35654
O         -0.54401       -0.89824       -0.33979
C         -1.73842       -0.59683        0.33071
C         -2.87857       -0.15001       -0.52482
C         -2.20645        0.83125        0.41450
H          3.36099        0.39492       -0.80090
H          3.23190        0.20246        0.96129
H          1.82990       -1.56666       -1.15813
H          2.28060       -2.08973        0.48601
H          0.49135       -0.66919        1.44503
H         -1.94148       -1.25992        1.17220
H         -2.66893       -0.04369       -1.58283
H         -3.87359       -0.51047       -0.28983
H         -1.55447        1.57939       -0.02086
H         -2.73768        1.14275        1.30754
