19
../xyz/dsC7O2H10nsd_5240.xyz
C         -2.89172       -0.44980        0.20761
C         -1.91189        0.59327       -0.34599
C         -0.46426        0.20615       -0.19251
C          0.18754       -1.01814       -0.83100
C          1.58420       -0.72749       -0.24368
O          1.84702        0.60567       -0.66849
C          0.68582        1.21054       -0.12894
C          0.34226        0.39139        1.09364
O          1.33405       -0.61797        1.15417
H         -3.92627       -0.11037        0.09912
H         -2.79756       -1.40404       -0.32030
H         -2.70725       -0.63870        1.27017
H         -2.12791        0.77473       -1.40725
H         -2.08025        1.55235        0.16119
H         -0.21546       -1.96804       -0.47350
H          0.18721       -0.98907       -1.92322
H          2.42630       -1.38305       -0.44646
H          0.62037        2.28228       -0.24749
H         -0.01946        0.74679        2.04747
