19
../xyz/dsC7O2H10nsd_3257.xyz
O         -2.26420       -0.09897       -0.54479
C         -1.38144       -0.00498        0.55132
C         -0.27177       -1.07367        0.58344
C          0.37594       -1.26152       -0.80926
C          1.26616       -0.00249       -0.88133
C          0.36574        1.25181       -0.83262
C         -0.27640        1.08661        0.56398
C          0.69520        0.01470        1.18458
O          1.88007        0.01204        0.41770
H         -2.88114        0.63853       -0.50231
H         -1.93704        0.00107        1.50008
H         -0.46466       -2.00330        1.11840
H          0.99919       -2.15918       -0.82650
H         -0.36303       -1.32180       -1.61002
H          2.03881       -0.00611       -1.65017
H          0.97759        2.15619       -0.87824
H         -0.37752        1.27920       -1.63275
H         -0.47163        2.02336        1.08753
H          0.91187        0.02482        2.25002
