19
../xyz/dsC7O2H10nsd_3526.xyz
C          1.33964        1.83625       -0.12946
C          0.21493        1.10896        0.60145
C         -1.21550        1.41431        0.04188
C         -1.32571       -0.04579       -0.40218
O         -2.10055       -0.67307       -1.06433
C         -0.00131       -0.42257        0.30389
C         -0.28159       -1.27918        1.55758
C          0.97201       -1.19512       -0.55818
O          2.15248       -0.97659       -0.65237
H          1.27019        2.91162        0.06697
H          2.32165        1.48283        0.18854
H          1.27630        1.69150       -1.21299
H          0.29507        1.29479        1.67567
H         -1.96626        1.68718        0.78973
H         -1.26647        2.14055       -0.77524
H         -1.05470       -0.81509        2.17756
H         -0.62905       -2.27895        1.27937
H          0.62915       -1.37766        2.15618
H          0.49387       -2.04066       -1.10203
