19
../xyz/dsC7O2H10nsd_2566.xyz
C         -2.82441       -0.53746       -0.52861
C         -1.43607       -0.26115       -0.01133
C         -0.60555       -1.24883        0.33534
C          0.82092       -1.12070        0.83403
C          1.65290       -0.28637       -0.13321
O          2.57107       -0.72106       -0.78248
C          1.24153        1.18761       -0.24155
O          0.16451        1.54076        0.59319
C         -1.10757        1.21210        0.07559
H         -2.96372       -0.12512       -1.53648
H         -3.02965       -1.60947       -0.57064
H         -3.58723       -0.06962        0.10716
H         -0.96037       -2.26948        0.21690
H          0.84618       -0.63954        1.81879
H          1.28818       -2.10349        0.91403
H          2.10237        1.79099        0.06749
H          1.04101        1.42177       -1.29860
H         -1.83154        1.70548        0.73705
H         -1.24043        1.66966       -0.92292
