19
../xyz/dsC7O2H10nsd_5024.xyz
O         -2.76887       -0.15457        0.06284
C         -1.67265        0.75081        0.03509
C         -0.33300        0.05619        0.01491
C          0.10985       -1.00780        1.08030
C          1.16977       -1.37712        0.00531
C          0.08299       -1.02460       -1.04927
C          2.05618       -0.11652       -0.01645
C          0.91817        0.92729       -0.01229
O          0.99068        2.12776       -0.02640
H         -2.83614       -0.56210       -0.80591
H         -1.74213        1.44780       -0.81314
H         -1.75510        1.35451        0.94495
H          0.45827       -0.64813        2.05308
H         -0.66217       -1.76844        1.20958
H          1.67009       -2.34435        0.00360
H          0.40449       -0.68429       -2.03851
H         -0.67773       -1.80382       -1.14258
H          2.69853       -0.00601        0.86284
H          2.67971       -0.02012       -0.91090
