19
../xyz/dsC7O2H10nsd_3333.xyz
O          1.24693        1.67959       -0.46271
C          0.00623        1.04030       -0.48763
C         -0.72723        0.78614        0.85368
C         -2.04591        0.15068        0.28848
C         -1.49181       -0.83101       -0.84216
C         -0.02935       -0.55891       -0.55315
C          1.37517       -1.14938       -0.54010
O          1.54060       -0.63360        0.83161
C          0.08074       -0.52299        0.97863
H          1.78193        1.22058        0.20202
H         -0.57898        1.53666       -1.26703
H         -0.84620        1.54535        1.62899
H         -2.60238       -0.39577        1.05453
H         -2.70240        0.92395       -0.11765
H         -1.79068       -1.86692       -0.66271
H         -1.82574       -0.54324       -1.84260
H          1.43462       -2.24413       -0.54812
H          2.11487       -0.71649       -1.21907
H         -0.29226       -1.31680        1.63389
