19
../xyz/dsC7O2H10nsd_0145.xyz
C          1.16257       -0.72284        1.08239
C          1.76804        0.39722        0.22961
C          0.71900        1.23978       -0.43042
C         -0.62740        1.66188        0.14017
O         -1.43514        0.61577        0.65826
C         -1.76010       -0.38850       -0.26885
O         -0.93597       -1.51844       -0.17976
C          0.45462       -1.26846       -0.20649
C          1.03031       -0.10930       -1.02999
H          1.90865       -1.42451        1.46240
H          0.50472       -0.41822        1.89627
H          2.79552        0.73501        0.29247
H          1.15645        2.04532       -1.01958
H         -0.48836        2.36193        0.97111
H         -1.18045        2.19673       -0.64950
H         -2.76637       -0.74633       -0.03326
H         -1.74351        0.02989       -1.28887
H          0.90541       -2.21557       -0.51091
H          1.39459       -0.20163       -2.04666
