19
../xyz/dsC7O2H10nsd_4173.xyz
C         -2.58557       -0.78551        0.30051
C         -1.30988       -0.17656       -0.17190
C         -0.48295       -0.53221       -1.15825
C          0.71273        0.40096       -1.04928
O          0.12280        1.60227       -0.53855
C         -0.59370        0.97418        0.53493
C          0.58379        0.34860        1.35098
C          1.54894       -0.05126        0.19149
O          1.85326       -1.42992        0.08954
H         -2.48970       -1.15661        1.32963
H         -3.40082       -0.05107        0.30932
H         -2.88797       -1.62518       -0.33083
H         -0.56668       -1.37189       -1.83369
H          1.28980        0.59994       -1.95112
H         -1.21158        1.69982        1.06487
H          1.03276        1.09422        2.01170
H          0.28508       -0.51959        1.94416
H          2.46801        0.54664        0.23664
H          2.43241       -1.66436        0.82051
