19
../xyz/dsC7O2H10nsd_0366.xyz
C         -1.72840       -1.17942        0.00002
C         -2.37059        0.19708        0.00000
C         -0.88492        0.04810       -0.00001
C          0.10783        0.62019        1.00881
C          1.27708       -0.33985        1.20322
O          1.53683       -1.05797        0.00003
C          1.27709       -0.33991       -1.20319
C          0.10785        0.62014       -1.00885
O          0.53686        1.58710       -0.00004
H         -1.77947       -1.76837        0.91009
H         -1.77948       -1.76837       -0.91005
H         -2.85286        0.53652       -0.91126
H         -2.85281        0.53655        0.91128
H         -0.23968        1.09015        1.93353
H          2.15792        0.24054        1.51797
H          1.06146       -1.09425        1.96856
H          2.15794        0.24046       -1.51797
H          1.06149       -1.09435       -1.96850
H         -0.23966        1.09005       -1.93359
