19
../xyz/dsC7O2H10nsd_0917.xyz
O         -3.30770       -0.79448        0.33357
C         -2.15876       -0.65585        0.00099
C         -1.53027        0.65328       -0.43043
C         -0.31816        0.98783        0.42145
C          0.81132        1.83187       -0.16602
C          1.00846        0.37537        0.08865
C          2.01381       -0.35878        0.96825
C          2.08863       -1.34521       -0.21778
O          1.13733       -0.56357       -0.98357
H         -1.45146       -1.51614       -0.00816
H         -1.20664        0.52580       -1.47163
H         -2.28651        1.44279       -0.39242
H         -0.52803        1.13583        1.47852
H          0.70944        2.14216       -1.20120
H          1.31346        2.54787        0.47687
H          2.93531        0.18838        1.17588
H          1.61629       -0.76794        1.89903
H          3.05610       -1.40959       -0.72660
H          1.71485       -2.35574       -0.02097
