19
../xyz/dsC7O2H10nsd_1555.xyz
C          1.41240        1.60885        0.09358
C          0.98992        0.14867       -0.00941
O          2.15884       -0.55681       -0.39570
C          0.33288       -0.41763        1.31022
C         -1.06747       -0.81358        0.78824
C         -0.71323       -1.49561       -0.57354
C         -0.20265       -0.07237       -0.98538
C         -1.37749        0.40268       -0.10671
O         -2.22558        1.24118       -0.17180
H          0.56946        2.24397        0.37860
H          2.20339        1.71670        0.84129
H          1.80257        1.95794       -0.86682
H          1.94193       -1.48893       -0.49582
H          0.89476       -1.28344        1.67366
H          0.29485        0.32406        2.11231
H         -1.78885       -1.22915        1.48885
H          0.02291       -2.30425       -0.53412
H         -1.58634       -1.81915       -1.14193
H         -0.06692        0.24126       -2.01813
