19
../xyz/dsC7O2H10nsd_3157.xyz
C          2.34893       -0.66149       -0.71508
C          1.24272       -0.58070        0.34204
C          0.91425        0.86329        0.73531
O          0.48350        1.68325       -0.36034
C         -0.50990        1.15549        0.54132
C         -1.18140       -0.06268       -0.02042
O         -2.21008        0.10186       -0.94253
C         -1.23061       -1.26212        0.86892
C         -0.10330       -1.12737       -0.14288
H          2.53289       -1.69925       -1.00990
H          2.06432       -0.09256       -1.60467
H          3.28925       -0.24835       -0.33560
H          1.57086       -1.11493        1.24427
H          1.51544        1.37858        1.48088
H         -1.06205        1.89687        1.11403
H         -1.84667        0.59211       -1.68986
H         -1.01101       -1.15442        1.92737
H         -2.00378       -1.98523        0.63427
H         -0.12069       -1.80022       -0.99306
