19
../xyz/dsC7O2H10nsd_3427.xyz
O         -3.07897        0.00294        0.24787
C         -1.69660        0.03992        0.42929
C         -0.73675       -0.80185       -0.36709
C          0.46412       -1.45816        0.28218
O          1.67044       -1.12647       -0.38660
C          2.33641       -0.00731        0.15302
C          1.60468        1.30768        0.18639
C          0.33720        1.60520       -0.10826
C         -0.75524        0.70804       -0.55469
H         -3.26458       -0.14166       -0.68539
H         -1.47392        0.17147        1.48380
H         -1.16817       -1.36241       -1.19334
H          0.53254       -1.18477        1.34547
H          0.36787       -2.54815        0.23206
H          2.67549       -0.23159        1.18350
H          3.24951        0.11025       -0.44489
H          2.24329        2.12069        0.53266
H          0.03951        2.64874       -0.00648
H         -1.25624        1.04462       -1.46255
