19
../xyz/dsC7O2H10nsd_0707.xyz
O          2.43604       -0.20973        0.61632
C          1.44092       -0.12944       -0.06758
C          0.92181        1.21241       -0.57496
C         -0.34538        1.71864        0.15701
C         -1.46093        0.67085        0.24168
C         -1.18352       -0.54149        1.15827
C         -0.84727       -1.26187       -0.16341
C          0.64893       -1.37683       -0.46633
O         -1.46753       -0.19559       -0.92685
H          1.72630        1.94271       -0.46265
H          0.67780        1.10946       -1.63674
H         -0.09213        2.04398        1.17330
H         -0.70950        2.60315       -0.37622
H         -2.43449        1.15249        0.37805
H         -0.38470       -0.44940        1.89735
H         -2.08448       -0.92330        1.64020
H         -1.34549       -2.21873       -0.34857
H          1.08344       -2.23346        0.05742
H          0.76780       -1.53791       -1.54605
