19
../xyz/dsC7O2H10nsd_1857.xyz
O         -2.37547        0.25331        0.17539
C         -0.98286        0.07011        0.03004
C         -0.24967       -0.56385        1.23304
C          1.09300       -0.87777        0.55228
O          1.82122        0.35117        0.39580
C          1.17599        1.30768       -0.44219
C         -0.34137        1.45325       -0.19100
C          0.61937       -1.43625       -0.78853
C         -0.55500       -0.88162       -1.09013
H         -2.76525       -0.60231        0.38634
H         -0.14091        0.10854        2.08703
H         -0.75356       -1.48404        1.54819
H          1.75863       -1.53217        1.11764
H          1.69021        2.25453       -0.25589
H          1.33618        1.04530       -1.49668
H         -0.54021        2.06354        0.69622
H         -0.80076        1.95808       -1.04780
H          1.21495       -2.08687       -1.41753
H         -1.12202       -0.98986       -2.00808
