19
../xyz/dsC7O2H10nsd_3138.xyz
C          0.13024        1.93892        0.92429
C         -0.11227        0.66415        0.12195
C         -1.46789        0.70835       -0.54579
O         -2.08829       -0.24912       -0.95241
C          0.92536        0.27082       -0.97291
C          2.25388       -0.09984       -0.37449
C          1.13295       -1.09800       -0.34184
C          0.18227       -0.74382        0.81853
O         -0.89506       -1.59097        1.05845
H         -0.55924        2.00510        1.77357
H          1.14796        1.97045        1.32043
H         -0.01188        2.83322        0.30615
H         -1.87999        1.73262       -0.69011
H          0.82774        0.53553       -2.01945
H          3.03864       -0.28930       -1.09989
H          2.60700        0.35853        0.54614
H          1.18870       -2.07279       -0.80992
H          0.69663       -0.62318        1.77912
H         -1.45605       -1.57289        0.26717
