19
../xyz/dsC7O2H10nsd_4848.xyz
O          2.57066       -0.53418        0.28475
C          1.39624       -0.74267       -0.51018
C          0.34232        0.31072       -0.16189
O          0.97830        1.56212       -0.15034
C         -0.66697        0.07965        1.06915
C         -1.57874        1.11735        0.33233
C         -1.03356        0.36930       -0.93222
C         -1.56233       -1.04032       -0.66850
C         -1.32601       -1.22476        0.63743
H          2.37581       -0.83514        1.17883
H          1.71910       -0.59383       -1.54590
H          1.01892       -1.76184       -0.40547
H          1.88449        1.38264        0.14088
H         -0.35646        0.20932        2.10659
H         -2.65195        1.03779        0.51749
H         -1.22539        2.14476        0.41749
H         -1.09456        0.78728       -1.93678
H         -1.98639       -1.71454       -1.39911
H         -1.50097       -2.09571        1.25396
