19
../xyz/dsC7O2H10nsd_2681.xyz
C         -0.18690        2.54846        0.10639
C          0.16866        1.15388        0.57001
C          0.92530        0.20896       -0.37298
C          2.00441       -0.62757        0.19221
O          3.00395       -0.95908       -0.39613
C         -0.51254       -0.05030        0.03827
C         -1.10947       -1.24283        0.78564
O         -2.26111       -1.23020       -0.08421
C         -1.73066       -0.14623       -0.87662
H          0.66396        3.22788        0.21647
H         -0.48492        2.55495       -0.94656
H         -1.01941        2.95388        0.69149
H          0.47824        1.08423        1.61219
H          1.09654        0.54644       -1.39119
H          1.83109       -0.93966        1.25061
H         -0.55448       -2.18687        0.71326
H         -1.38132       -1.06363        1.83388
H         -1.52643       -0.45380       -1.91023
H         -2.39882        0.72461       -0.88465
