19
../xyz/dsC7O2H10nsd_6015.xyz
C          3.71781       -0.23971       -0.14240
C          2.30994       -0.54939        0.33268
O          1.46532        0.53748       -0.03600
C          0.15594        0.39245        0.38183
C         -0.84201        1.16935       -0.37459
C         -2.22034        1.02136        0.28769
C         -2.12803       -0.50321       -0.01284
O         -2.92233       -1.39770        0.06460
C         -0.76270       -0.37201       -0.60136
H          4.39554       -1.05474        0.12768
H          3.73895       -0.11655       -1.22885
H          4.08431        0.68354        0.31493
H          1.93741       -1.48126       -0.11808
H          2.28615       -0.68210        1.42561
H          0.03711        0.23342        1.45677
H         -0.55066        1.93723       -1.07797
H         -2.30911        1.32936        1.33410
H         -3.03503        1.46776       -0.28918
H         -0.31217       -0.94788       -1.39978
