19
../xyz/dsC7O2H10nsd_1107.xyz
C         -2.81515        0.67046        0.26680
C         -1.52061        0.04914       -0.23399
O         -1.52317       -0.86048       -1.03601
C         -0.27148        0.62546        0.35037
C          0.73006       -0.19349        1.17162
O          0.83765       -1.52758        0.72215
C          1.34117       -1.05770       -0.56376
C          1.15857        0.40640       -0.13723
C          2.07912        1.53640       -0.49424
H         -2.86571        0.62360        1.36043
H         -2.85914        1.73055       -0.00974
H         -3.66693        0.14514       -0.16632
H         -0.39930        1.61275        0.79058
H          0.95032        0.02138        2.21208
H          2.39982       -1.32232       -0.66589
H          0.75180       -1.43078       -1.39980
H          1.92555        1.85955       -1.53042
H          1.90935        2.40496        0.14986
H          3.12832        1.23962       -0.38731
