19
../xyz/dsC7O2H10nsd_0549.xyz
C         -2.04859       -0.61230       -0.02157
O         -1.89417        0.82182        0.10421
C         -0.61693        0.79399       -0.57013
C         -0.64337       -0.76258       -0.62955
C          0.52906       -1.12125        0.30150
C          0.50999       -0.02036        1.37327
C          0.59511        1.10629        0.32222
C          1.81804        0.62013       -0.48048
O          1.72403       -0.82002       -0.44046
H         -2.22702       -1.09519        0.94763
H         -2.87006       -0.86933       -0.70191
H         -0.63589        1.36837       -1.50267
H         -0.56663       -1.26073       -1.59502
H          0.58406       -2.15835        0.63426
H         -0.40039        0.02357        1.97147
H          1.38242       -0.07423        2.02813
H          0.66238        2.13215        0.68494
H          1.80749        0.96116       -1.52377
H          2.76481        0.93461       -0.02459
