19
../xyz/dsC7O2H10nsd_3474.xyz
O         -1.60657        1.45117        0.43405
C         -0.65784        0.85599       -0.44023
C          0.65726        1.58450       -0.31040
C          1.74755        0.89550        0.02377
C          1.59931       -0.58921        0.27329
C          0.34930       -0.80124        1.18933
C         -0.47141       -0.63802       -0.11475
O         -1.74666       -1.22399       -0.23753
C          0.75189       -1.20238       -0.88792
H         -2.37638        0.86925        0.41395
H         -1.02093        0.92154       -1.48157
H          0.65943        2.65436       -0.48989
H          2.72145        1.36482        0.12150
H          2.53099       -1.08197        0.54870
H          0.29678       -1.83031        1.56221
H          0.17140       -0.09028        1.99730
H         -1.71082       -2.11301        0.12901
H          0.75724       -2.29745       -0.86864
H          0.94037       -0.84516       -1.90321
