19
../xyz/dsC7O2H10nsd_4801.xyz
C          1.88375        2.12021        0.03848
C          0.62086        1.43318       -0.48537
C          0.37038        0.07369        0.18790
O          1.44301       -0.76831       -0.12626
C          1.52502       -1.94906        0.65035
C         -0.97626       -0.50831       -0.27744
O         -1.06676       -1.48962       -0.97904
C         -2.15299        0.20924        0.19311
C         -3.11824        0.80349        0.59937
H          1.79664        2.34484        1.10743
H          2.75622        1.47843       -0.10289
H          2.05906        3.06288       -0.48824
H         -0.25548        2.06986       -0.32690
H          0.70398        1.25835       -1.56429
H          0.29379        0.22458        1.28136
H          1.57303       -1.71599        1.72534
H          0.67885       -2.61988        0.46486
H          2.44894       -2.45319        0.35854
H         -3.98007        1.31882        0.94885
