19
../xyz/dsC7O2H10nsd_0592.xyz
C          1.79267       -0.59634       -0.20186
O          1.69455        0.82064       -0.04095
C          0.38094        1.14014        0.40450
C         -0.64141        1.26761       -0.77224
C         -1.40591       -0.06084       -0.65966
C         -1.64370       -0.16623        0.85376
C         -0.14338       -0.10899        1.16537
C          0.43310       -1.16627        0.19525
O         -0.49014       -1.14169       -0.91392
H          2.03459       -0.84834       -1.24050
H          2.59015       -0.97971        0.44933
H          0.45565        2.04954        1.00393
H         -1.31587        2.11942       -0.63453
H         -0.12215        1.38327       -1.72556
H         -2.26264       -0.18467       -1.32190
H         -2.21033        0.67200        1.26794
H         -2.11494       -1.10795        1.14575
H          0.18184       -0.20196        2.20079
H          0.49457       -2.18770        0.58307
