19
../xyz/dsC7O2H10nsd_4831.xyz
C         -2.50294       -0.93409       -0.30911
O         -1.48408       -0.58434        0.60397
C         -0.54298        0.36640        0.13962
C         -1.15691        1.74299       -0.07622
C          0.75698        0.27058        0.95735
C          1.22120       -1.00423        0.18482
O          2.54225       -0.47366       -0.13813
C          1.63977        0.66273       -0.26783
C          0.47786       -0.16436       -0.90311
H         -2.09414       -1.26421       -1.27553
H         -3.05596       -1.76437        0.13704
H         -3.20610       -0.10995       -0.49396
H         -0.38635        2.48337       -0.30990
H         -1.87364        1.74436       -0.90329
H         -1.68255        2.06687        0.82771
H          0.93583        0.50774        2.00558
H          1.12589       -2.05488        0.44733
H          2.05278        1.62780       -0.55704
H          0.36104       -0.41292       -1.95788
