19
../xyz/dsC7O2H10nsd_1973.xyz
C          2.46804        0.00788        0.69276
C          1.10961        0.03014        0.03074
C          0.39288        1.37251        0.09298
O         -0.87810        1.40145       -0.51731
C         -1.72805        0.32074       -0.27025
C         -1.86607       -0.36837        1.06057
C         -1.19220       -1.07225       -0.11954
C          0.29244       -1.18770       -0.07803
O          1.01587       -0.66683       -1.21365
H          2.39720        0.26055        1.75608
H          2.91698       -0.98366        0.59878
H          3.14033        0.73161        0.21849
H          0.33066        1.67893        1.15071
H          0.98580        2.13037       -0.43072
H         -2.63195        0.45681       -0.85308
H         -1.22507       -0.06985        1.88254
H         -2.85586       -0.69159        1.36354
H         -1.72198       -1.88660       -0.60418
H          0.70172       -2.12124        0.31014
