19
../xyz/dsC7O2H10nsd_2914.xyz
C         -1.33522        1.64772        0.52724
C         -0.26599        0.65852        0.12109
C          0.95297        1.23837       -0.60231
O          1.91199        0.17599       -0.63706
C          1.52623       -0.74486        0.36208
C          0.19500       -1.45843        0.23569
C          0.39093       -0.27178        1.19119
C         -0.73215       -0.64248       -0.64804
O         -2.06791       -1.02380       -0.38306
H         -1.71431        2.20259       -0.33990
H         -2.17754        1.13290        0.99562
H         -0.94143        2.38176        1.23861
H          0.73395        1.53914       -1.63359
H          1.36311        2.10618       -0.06239
H          2.36015       -1.29155        0.78536
H          0.06782       -2.51152        0.45924
H          0.34122       -0.19382        2.26945
H         -0.53119       -0.65120       -1.73044
H         -2.64504       -0.49434       -0.94256
