19
../xyz/dsC7O2H10nsd_2106.xyz
C         -2.53622       -0.48861       -0.33800
C         -1.05232       -0.41753       -0.14042
C          0.05708       -1.19999       -0.84331
C          1.05517       -0.25150       -0.12159
C          2.47311       -0.03030       -0.54241
O          0.89629       -0.63381        1.28104
C         -0.39518       -0.04067        1.22883
C         -0.14666        0.80029        0.03669
O         -0.29583        2.14714       -0.16467
H         -2.93180       -1.46555       -0.03740
H         -3.04976        0.27467        0.25703
H         -2.81369       -0.32935       -1.38689
H          0.17454       -2.26539       -0.61854
H          0.04290       -1.03666       -1.92568
H          2.52280        0.25818       -1.59687
H          2.93697        0.75731        0.05787
H          3.05369       -0.95022       -0.41113
H         -0.95194        0.12037        2.14260
H         -0.51732        2.29989       -1.09072
