19
../xyz/dsC7O2H10nsd_5563.xyz
C          2.97888       -0.96532        0.07563
O          2.35922        0.29783       -0.07714
C          1.03660        0.30816        0.34934
C          0.19852        1.36563       -0.28038
C         -1.19038        1.39397        0.37595
C         -1.36861       -0.07550       -0.06610
C         -2.59037       -0.75757       -0.48600
O         -1.92531       -1.10674        0.73727
C          0.00483       -0.11606       -0.68007
H          2.47333       -1.74102       -0.51645
H          4.00894       -0.86065       -0.27224
H          2.98805       -1.28457        1.12826
H          0.89748        0.04098        1.40090
H          0.64775        2.15639       -0.86572
H         -1.21082        1.57288        1.45560
H         -1.89373        2.07120       -0.11450
H         -3.55402       -0.26133       -0.37148
H         -2.55012       -1.51320       -1.27041
H          0.30509       -0.62931       -1.58531
