19
../xyz/dsC7O2H10nsd_3882.xyz
C          1.99992       -1.39076       -0.47165
C          1.45969       -0.28755        0.44760
C          0.07979       -0.64663        1.07126
C         -0.95396       -0.06977        0.10656
C         -2.40214       -0.24830        0.21513
O         -1.65070       -0.96600       -0.77214
C         -0.28994        1.09215       -0.57400
O          0.39016        1.95118        0.35345
C          1.15851        0.97130       -0.35581
H          2.22163       -2.29698        0.09992
H          1.26748       -1.65159       -1.24284
H          2.92212       -1.07687       -0.97243
H          2.19442       -0.07518        1.23182
H         -0.06077       -1.72330        1.19222
H         -0.03029       -0.17285        2.04981
H         -2.80813       -0.85528        1.02365
H         -3.07641        0.51417       -0.17328
H         -0.74720        1.56495       -1.43842
H          1.89025        1.36889       -1.05541
