19
../xyz/dsC7O2H10nsd_1186.xyz
C          1.21138        1.84876       -0.34985
C          0.74409        0.39196       -0.53726
C          1.82680       -0.55421       -0.26763
C          2.72185       -1.32800       -0.05597
C         -0.49329        0.07128        0.32307
O         -0.16598        0.34759        1.65769
C         -1.81651        0.65296       -0.24611
O         -2.19867       -0.63936       -0.75236
C         -1.14895       -1.29300       -0.00950
H          1.51371        2.01846        0.68460
H          2.05971        2.06245       -1.00408
H          0.40381        2.54558       -0.59498
H          0.43045        0.25553       -1.58109
H          3.51287       -2.01033        0.13421
H         -0.91665        0.11468        2.21377
H         -2.49738        1.01157        0.54067
H         -1.75414        1.40889       -1.03698
H         -1.53273       -1.81419        0.88055
H         -0.57468       -1.99699       -0.61983
