19
../xyz/dsC7O2H10nsd_4348.xyz
C         -2.31146        0.54309        0.99375
C         -1.58072        0.49654       -0.36214
C         -1.25918       -0.92404       -0.81914
O         -0.19675       -1.51591       -0.05831
C          0.94374       -0.79936        0.12389
O          1.92788       -1.35488        0.54162
C          0.89213        0.66919       -0.14028
C          2.20981        1.38623       -0.07136
C         -0.28995        1.26938       -0.32548
H         -1.72758        0.03063        1.76347
H         -2.46876        1.57558        1.31953
H         -3.28991        0.05701        0.92248
H         -2.23748        0.93977       -1.12209
H         -2.11141       -1.59640       -0.69253
H         -0.97357       -0.92125       -1.87894
H          2.69370        1.21216        0.89431
H          2.90062        1.00890       -0.83273
H          2.07917        2.46114       -0.21909
H         -0.34007        2.35268       -0.41642
