19
../xyz/dsC7O2H10nsd_4362.xyz
C         -2.81955       -0.61309        0.21437
C         -1.36100       -0.17558        0.29883
C         -1.18288        1.29910       -0.06497
C          0.22191        1.81947       -0.09059
C          1.39711        1.17639       -0.04196
C          1.71199       -0.26706        0.05219
O          2.85458       -0.61956        0.27816
C          0.65842       -1.36392       -0.13962
O         -0.61179       -0.98486       -0.60002
H         -3.45041       -0.00502        0.87002
H         -3.18515       -0.51095       -0.81217
H         -2.91923       -1.66084        0.50866
H         -0.99333       -0.33628        1.32486
H         -1.62889        1.47325       -1.05611
H         -1.76852        1.91887        0.62823
H          0.27768        2.90577       -0.15718
H          2.30768        1.77060       -0.04138
H          1.06727       -2.06204       -0.87622
H          0.59462       -1.90983        0.81660
