19
../xyz/dsC7O2H10nsd_4015.xyz
C         -2.92138        0.01455       -0.29402
C         -1.41031       -0.10039       -0.41679
C         -0.73876       -1.43499        0.02846
C          0.32529       -0.60918        0.80068
C         -0.53401        0.66440        0.62891
C          0.43789        1.71663        0.09845
O          1.55505        0.98918       -0.44274
C          1.56920       -0.31139       -0.02764
O          2.45359       -1.06135       -0.32396
H         -3.25492       -0.23931        0.71882
H         -3.26363        1.03234       -0.51267
H         -3.42686       -0.66320       -0.99038
H         -1.09982        0.16674       -1.43355
H         -1.37523       -2.00366        0.71204
H         -0.36737       -2.10688       -0.74823
H          0.61614       -0.95923        1.79244
H         -1.09361        1.00284        1.50258
H          0.01940        2.33063       -0.70472
H          0.80926        2.37924        0.88896
