19
../xyz/dsC7O2H10nsd_5574.xyz
O          2.86282       -0.04747       -0.38126
C          1.82648       -0.48068        0.49232
C          0.48755       -0.62690       -0.22528
C         -0.74079       -0.90012        0.67600
C         -1.85842       -1.10887       -0.37880
C         -1.65316        0.38703       -0.66792
C         -1.24076        0.62484        0.79917
O         -0.17419        1.51129        0.44370
C         -0.10498        0.69534       -0.76784
H          2.75478        0.90003       -0.50739
H          2.14048       -1.45908        0.87252
H          1.71911        0.19386        1.34982
H          0.58188       -1.37922       -1.01531
H         -0.62309       -1.55584        1.53749
H         -1.68031       -1.84497       -1.16737
H         -2.84150       -1.28056        0.06954
H         -2.34228        1.02502       -1.21828
H         -1.87193        0.94404        1.62688
H          0.35830        1.20224       -1.61335
