19
../xyz/dsC7O2H10nsd_4031.xyz
O         -2.07769       -0.73001       -0.31799
C         -0.99353       -0.47623        0.55792
C          0.00442       -1.64891        0.46741
C          1.10584       -1.14110       -0.46393
C          1.87556        0.11302       -0.08106
C          1.09056        0.94233        0.94023
C         -0.18239        0.72699        0.06408
O         -1.05017        1.80666       -0.15904
C          0.73010        0.17581       -1.07924
H         -2.46698        0.13081       -0.51615
H         -1.35308       -0.30834        1.58503
H          0.38721       -1.94106        1.45051
H         -0.51124       -2.51215        0.03944
H          1.65852       -1.85301       -1.06715
H          2.94014        0.19107       -0.26721
H          1.05568        0.60952        1.98453
H          1.39348        1.99391        0.91423
H         -0.56668        2.50861       -0.60540
H          0.70238        0.41599       -2.13400
