19
../xyz/dsC7O2H10nsd_1576.xyz
C         -2.44786        0.27806       -0.82281
C         -1.18354        0.02397        0.00665
O         -1.54169       -0.25579        1.37018
C         -0.35754       -1.13467       -0.58245
C          1.01530       -1.24442        0.08800
C          1.79852        0.05489       -0.02243
O          3.00827        0.08884       -0.11904
C          0.98928        1.29631        0.04275
C         -0.34619        1.28565        0.08170
H         -3.05532        1.05914       -0.35645
H         -2.20142        0.58870       -1.84264
H         -3.05148       -0.63525       -0.88990
H         -2.22672       -0.93423        1.35706
H         -0.92006       -2.06866       -0.46453
H         -0.23418       -0.97392       -1.66029
H          0.87239       -1.44342        1.15795
H          1.62057       -2.05488       -0.32419
H          1.55485        2.22264        0.08032
H         -0.89912        2.21674        0.18507
