19
../xyz/dsC7O2H10nsd_1098.xyz
C          2.54299       -0.99377        0.00030
C          1.57441        0.17748       -0.00006
O          1.98609        1.32340       -0.00040
C          0.13033       -0.16043       -0.00002
C         -0.90901        0.69382        0.00000
C         -0.93222        2.18504        0.00023
C         -2.18810       -0.09780       -0.00006
O         -1.81470       -1.46592       -0.00005
C         -0.39644       -1.58010       -0.00007
H          2.38437       -1.62660       -0.88052
H          3.56596       -0.61700        0.00126
H          2.38292       -1.62755        0.88016
H         -1.47814        2.55512       -0.87718
H         -1.47638        2.55478        0.87890
H          0.07494        2.59565       -0.00058
H         -2.80519        0.13144        0.88475
H         -2.80499        0.13149       -0.88501
H         -0.07318       -2.15135        0.88457
H         -0.07315       -2.15132       -0.88471
