19
../xyz/dsC7O2H10nsd_0612.xyz
C          1.34637       -0.76911       -0.81320
C          1.33773        0.78057       -0.81497
C          0.24567        1.34918        0.11147
O         -1.04149        1.17880       -0.52062
C         -1.73052       -0.00813       -0.21799
O         -1.02948       -1.18758       -0.52196
C          0.25820       -1.34699        0.11196
C          0.33803       -0.66485        1.46222
C          0.33224        0.66847        1.46193
H          1.17339       -1.16365       -1.81817
H          2.31828       -1.14712       -0.47882
H          2.30641        1.17007       -0.48442
H          1.15747        1.17087       -1.82032
H          0.36693        2.43149        0.20573
H         -2.03846       -0.01030        0.83669
H         -2.61591       -0.01224       -0.85799
H          0.38868       -2.42817        0.20697
H          0.37784       -1.25531        2.37148
H          0.36680        1.25968        2.37093
