19
../xyz/dsC7O2H10nsd_1643.xyz
C          1.97059        1.47198       -0.12173
C          1.19577        0.17221       -0.12605
C          1.88761       -1.11846       -0.24471
O          1.38355       -0.66438        1.01803
C         -0.23938        0.29089       -0.60169
O         -0.90039       -0.99836       -0.69646
C         -1.78399       -0.63721        0.37175
C         -2.64730        0.51660       -0.02687
C         -1.23358        0.76066        0.46485
H          1.46253        2.22996        0.48468
H          2.96701        1.31541        0.29738
H          2.07522        1.86972       -1.13677
H          1.35675       -1.96644       -0.66821
H          2.97327       -1.13319       -0.33474
H         -0.26303        0.82560       -1.56149
H         -2.01467       -1.39011        1.11495
H         -2.90539        0.65837       -1.07294
H         -3.42341        0.78957        0.68185
H         -0.99184        1.36298        1.32942
