19
../xyz/dsC7O2H10nsd_3988.xyz
C         -3.12715        0.19555       -0.39284
C         -1.80148        0.15499        0.33901
O         -1.21356       -1.18214        0.30446
C         -0.05889       -0.70684       -0.39098
C          1.11444       -0.28493        0.57100
C          0.59423        1.17836        0.53783
C         -0.57475        0.75629       -0.38558
C          2.47555       -0.51978       -0.02317
O          3.17678        0.32912       -0.51528
H         -3.54511        1.20803       -0.36878
H         -3.00593       -0.10755       -1.43748
H         -3.84280       -0.48384        0.08032
H         -1.92351        0.49589        1.37637
H          0.18882       -1.31148       -1.26797
H          1.04006       -0.82178        1.52161
H          0.30828        1.61205        1.49911
H          1.31754        1.83425        0.04956
H         -0.76975        1.34420       -1.28201
H          2.79490       -1.58743       -0.01579
