19
../xyz/dsC7O2H10nsd_4798.xyz
C          0.90931        2.63456       -0.26446
C          1.54823        1.41780        0.40674
C          1.15053        0.06772       -0.23812
C          1.96179       -1.10088        0.37098
O          1.65998       -2.35701       -0.19523
C         -0.28304       -0.17968       -0.14249
C         -1.47440       -0.35585       -0.04092
C         -2.88490       -0.61662        0.07618
O         -3.74478        0.23533        0.07074
H          1.21983        3.55795        0.23286
H          1.20476        2.70688       -1.31700
H         -0.18214        2.57894       -0.22544
H          2.64111        1.49904        0.36329
H          1.27736        1.39033        1.46861
H          1.40319        0.11956       -1.30960
H          3.03190       -0.85779        0.28314
H          1.72822       -1.18664        1.43684
H          1.92799       -2.34554       -1.11976
H         -3.13905       -1.69165        0.17545
