19
../xyz/dsC7O2H10nsd_5933.xyz
O          3.00907       -0.97723       -0.08926
C          1.86400       -0.37781        0.49160
C          0.86427        0.11254       -0.56283
C         -0.37616        0.76000        0.02135
C         -1.30469       -0.12566        0.85490
C         -1.71478       -1.34894        0.17372
C         -2.03901       -2.35906       -0.39054
C         -0.39799        2.20799        0.28004
O         -1.05962        1.65667       -0.86085
H          3.45284       -0.31030       -0.62305
H          1.41175       -1.15910        1.11104
H          2.14046        0.45118        1.16386
H          1.35078        0.84852       -1.21422
H          0.57006       -0.73446       -1.19129
H         -0.80568       -0.38373        1.79848
H         -2.18844        0.46548        1.11901
H         -2.33460       -3.24946       -0.88795
H         -1.05278        2.61477        1.05011
H          0.48621        2.80715        0.06553
