19
../xyz/dsC7O2H10nsd_1698.xyz
O          0.23455       -0.30046        1.46875
C         -0.05184       -0.08402        0.09176
C         -0.87034        1.23022       -0.08121
C         -2.30059        0.74593       -0.06502
C         -2.37808       -0.57182       -0.25657
C         -1.01220       -1.19349       -0.43171
C          1.26786       -0.05186       -0.64888
C          2.52600       -0.53551       -0.07083
O          2.25432        0.86560       -0.18408
H         -0.59917       -0.23610        1.94707
H         -0.61608        1.93630        0.71537
H         -0.63714        1.73082       -1.03092
H         -3.14685        1.41335        0.05412
H         -3.29623       -1.14551       -0.31617
H         -0.86155       -2.11732        0.13617
H         -0.82605       -1.43311       -1.48834
H          1.15649       -0.06998       -1.73474
H          2.52316       -0.92293        0.94368
H          3.30767       -0.91341       -0.72883
