19
../xyz/dsC7O2H10nsd_2191.xyz
O         -2.25690        0.09592        0.56902
C         -0.96759        0.04619       -0.00041
C         -0.65839       -1.23764       -0.84700
C          0.58604       -1.48634        0.02410
O          1.71384       -0.67892       -0.38686
C          1.38242        0.37437        0.56352
C          0.93328        1.66020       -0.12558
C         -0.50766        1.38684       -0.63481
C          0.13123       -0.39179        1.02029
H         -2.88989        0.26398       -0.13773
H         -1.42801       -1.99323       -0.66018
H         -0.49058       -1.12669       -1.92175
H          0.87681       -2.50928        0.27168
H          2.19788        0.51565        1.28098
H          0.93605        2.47734        0.60454
H          1.62894        1.93413       -0.92361
H         -1.19109        2.17634       -0.30930
H         -0.55336        1.34268       -1.72693
H         -0.13831       -0.52783        2.06428
