19
../xyz/dsC7O2H10nsd_4707.xyz
C          2.99469       -0.81593       -0.38367
C          1.58333       -1.05990        0.15022
C          0.55690       -0.02720       -0.36292
C          0.87185        1.33748        0.05784
C          1.13775        2.44865        0.43064
C         -0.85895       -0.38226        0.11518
O         -1.11707       -1.11459        1.03398
O         -1.78068        0.23817       -0.64025
C         -3.14353        0.01416       -0.25345
H          3.02307       -0.86943       -1.47796
H          3.36387        0.17022       -0.08759
H          3.68782       -1.56814        0.00393
H          1.23133       -2.05419       -0.14426
H          1.57317       -1.04089        1.24342
H          0.53309       -0.04865       -1.46057
H          1.36970        3.43483        0.74896
H         -3.74840        0.58560       -0.95717
H         -3.38999       -1.04902       -0.31030
H         -3.31387        0.36103        0.76872
