19
../xyz/dsC7O2H10nsd_2884.xyz
C          0.51154        1.96270        0.77146
C          0.66846        0.64425        0.06424
C          1.97547       -0.11357       -0.27578
C          0.87461       -1.02986       -0.84081
C          0.00172        0.19071       -1.29009
C         -1.24687       -0.37602       -0.60114
O         -2.20687        0.57957       -0.20952
C         -0.10126       -0.71413        0.35357
O         -0.27568       -1.37800        1.55182
H          0.90231        1.90646        1.79463
H          1.06307        2.75538        0.25290
H         -0.54169        2.24736        0.81949
H          2.63870        0.36366       -1.00495
H          2.56561       -0.49821        0.56519
H          0.96168       -1.97687       -1.37363
H          0.07940        0.70822       -2.24380
H         -1.71450       -1.23822       -1.10055
H         -2.76912        0.17357        0.45836
H          0.57290       -1.43843        2.00531
