19
../xyz/dsC7O2H10nsd_5214.xyz
C          0.67712        2.00179        0.49856
C          0.76693        0.58448        0.03626
O          1.30516        0.29800       -1.29980
C          0.96875       -1.00825       -0.75441
C          1.41940       -0.67688        0.69722
C          0.07541       -1.14439        1.29662
C         -0.34497       -0.52534       -0.05978
C         -1.70103       -0.36268       -0.68341
O         -2.54610        0.49672        0.07458
H          0.26513        2.04337        1.51146
H          1.66765        2.46710        0.50491
H          0.02200        2.57858       -0.16030
H          1.15452       -1.89477       -1.36072
H          2.42923       -0.75408        1.10048
H         -0.06145       -2.22456        1.40506
H         -0.25938       -0.62690        2.20100
H         -1.58371        0.11355       -1.66284
H         -2.17189       -1.34509       -0.84780
H         -2.70434        0.07271        0.92411
