19
../xyz/dsC7O2H10nsd_5747.xyz
C         -3.02409        0.28274       -0.20116
C         -1.82541       -0.66065       -0.07001
C         -0.62592       -0.00705        0.60259
O         -0.20387        1.14673       -0.15853
C          1.20023        1.16673       -0.15711
C          1.92257       -0.05729       -0.69923
O          1.01977       -1.16182       -0.73035
C          0.63939       -0.86066        0.65283
C          1.79089        0.16141        0.78941
H         -3.36932        0.62758        0.78025
H         -2.75704        1.16331       -0.79090
H         -3.86351       -0.21795       -0.69285
H         -2.10541       -1.54300        0.52059
H         -1.50501       -1.01693       -1.05343
H         -0.89122        0.31628        1.62472
H          1.63111        2.15227       -0.28766
H          2.77010       -0.06577       -1.37516
H          0.60780       -1.75250        1.27971
H          2.48938        0.30608        1.60170
