19
../xyz/dsC7O2H10nsd_2918.xyz
C          0.51304        2.30182       -0.48924
C          0.30283        0.88333       -0.05767
C          1.08982        0.08965        0.93847
C          1.60686       -1.17904        0.27345
O          0.90861       -1.25795       -0.97734
C         -0.16734       -0.33585       -0.90112
C         -1.17899       -0.69840        0.23975
O         -2.47414       -0.17049        0.02103
C         -0.41268        0.25834        1.13980
H          1.30653        2.37455       -1.24234
H         -0.39973        2.72678       -0.92050
H          0.80281        2.93048        0.35943
H          1.72591        0.61156        1.64459
H          2.68329       -1.11950        0.07154
H          1.42075       -2.08349        0.86830
H         -0.58824       -0.18448       -1.89586
H         -1.22003       -1.76239        0.51662
H         -2.90996       -0.72620       -0.63365
H         -0.81834        0.74102        2.02174
