19
../xyz/dsC7O2H10nsd_3911.xyz
O          2.95053       -0.52942        0.28661
C          1.76492       -0.15992       -0.40905
C          0.51308       -0.97938       -0.01061
C         -0.64128        0.03324        0.11021
C         -1.83230       -0.28520        1.04885
C         -2.69388       -0.23186       -0.22367
O         -1.54118        0.02760       -1.04807
C          0.07572        1.34991        0.24882
C          1.37163        1.24717       -0.03450
H          3.25346       -1.36921       -0.07223
H          1.94358       -0.21423       -1.49531
H          0.25907       -1.77927       -0.71067
H          0.71702       -1.42083        0.97049
H         -1.77474       -1.26175        1.53338
H         -2.04322        0.47528        1.80347
H         -3.19776       -1.16512       -0.50367
H         -3.42254        0.58726       -0.26918
H         -0.45248        2.26453        0.49543
H          2.09545        2.05419       -0.04036
