19
../xyz/dsC7O2H10nsd_3550.xyz
O          2.40455       -0.73994        0.27565
C          1.23025       -0.43783       -0.46988
C          0.04351       -1.35088       -0.06574
C         -1.30302       -0.62701        0.06804
O         -2.35757       -1.21276        0.01561
C         -1.17829        0.86733        0.26598
C         -0.39234        1.41826       -0.97054
C          0.90289        1.03338       -0.21138
C          0.09558        1.19696        1.10464
H          2.62788       -1.66389        0.12404
H          1.43050       -0.55810       -1.54640
H         -0.08233       -2.21280       -0.72595
H          0.26701       -1.74715        0.93348
H         -2.14141        1.30592        0.52616
H         -0.58200        0.96255       -1.94758
H         -0.50972        2.50108       -1.05213
H          1.79680        1.64224       -0.35655
H          0.34931        0.55336        1.94989
H          0.07665        2.23705        1.43823
