19
../xyz/dsC7O2H10nsd_3990.xyz
C         -2.94748       -1.06204       -0.36240
C         -1.72454       -0.51475        0.36174
C         -1.77986        1.02843        0.65078
C         -0.55890        1.23395       -0.24956
C          0.57725        0.40427        0.25164
O          1.77878        0.64977       -0.46740
C          2.80564       -0.17615       -0.20274
O          2.80294       -1.08764        0.57574
C         -0.50001       -0.27758       -0.53540
H         -2.79067       -2.09983       -0.67610
H         -3.82925       -1.03635        0.28693
H         -3.17103       -0.47174       -1.25833
H         -1.51039       -1.13071        1.24355
H         -2.68749        1.48030        0.24286
H         -1.66992        1.34471        1.69351
H         -0.37180        2.06895       -0.91353
H          0.74545        0.19446        1.30464
H          3.66466        0.13394       -0.81754
H         -0.26598       -0.79749       -1.45710
