19
../xyz/dsC7O2H10nsd_4908.xyz
C         -1.43798        1.44513        1.09264
C         -1.01957        0.64366       -0.15971
C         -1.87092       -0.53241       -0.34588
C         -2.58197       -1.49163       -0.48401
C          0.46415        0.26821       -0.12190
C          0.91546       -0.72455        0.94456
O          2.25747       -1.11548        0.75635
C          1.44732        1.19652       -0.69166
O          1.05388        0.00894       -1.40415
H         -2.47291        1.78134        0.99638
H         -1.36848        0.83426        1.99634
H         -0.79553        2.32227        1.21421
H         -1.14447        1.28883       -1.03849
H         -3.20664       -2.33977       -0.61943
H          0.84922       -0.26687        1.93723
H          0.23319       -1.58787        0.92826
H          2.33705       -1.32550       -0.18372
H          1.11312        2.13071       -1.14010
H          2.46569        1.18537       -0.31244
