19
../xyz/dsC7O2H10nsd_1604.xyz
O         -1.83534       -1.27538        0.00009
C         -0.76862       -0.37990       -0.00005
C         -1.21946        1.02471       -0.00024
O         -2.40381        1.29694       -0.00014
C          0.46579       -0.88414        0.75212
C          1.55735        0.05910        1.24241
C          2.02975        0.86069       -0.00016
C          1.55747        0.05847       -1.24236
C          0.46587       -0.88452       -0.75170
H         -2.62567       -0.71120        0.00039
H         -0.45290        1.81757       -0.00045
H          0.26192       -1.79172        1.30951
H          1.23815        0.71239        2.06069
H          2.37594       -0.55513        1.63427
H          1.59676        1.86502       -0.00043
H          3.11364        1.00106       -0.00014
H          1.23833        0.71135       -2.06100
H          2.37609       -0.55595       -1.63384
H          0.26209       -1.79240       -1.30865
