19
../xyz/dsC7O2H10nsd_3977.xyz
C          2.42534        0.62172       -0.58032
C          1.68342       -0.32907        0.33464
O          1.01618       -1.41393       -0.36408
C         -0.22569       -1.16897        0.32093
C         -1.21056       -0.31695       -0.52537
C         -2.69745       -0.46854       -0.19668
C         -0.57631        0.93630        0.12605
O         -0.79843        2.10932        0.03589
C          0.35552        0.10038        1.01854
H          1.75699        1.07543       -1.31687
H          2.89034        1.42251        0.00411
H          3.21531        0.08442       -1.11431
H          2.37211       -0.74832        1.08088
H         -0.61500       -2.04700        0.84105
H         -1.03276       -0.40434       -1.60150
H         -3.27054        0.34436       -0.65090
H         -3.08364       -1.42033       -0.57357
H         -2.87454       -0.43603        0.88405
H          0.37403        0.31705        2.08582
