19
../xyz/dsC7O2H10nsd_6068.xyz
C         -4.13849       -0.46317       -0.00010
C         -2.66980       -0.89627       -0.00056
C         -1.72975        0.29799        0.00092
O         -0.37946       -0.20681        0.00059
C          0.58915        0.72864       -0.00006
O          0.38705        1.91931       -0.00013
C          1.89701        0.11926       -0.00090
C          3.01628       -0.32607       -0.00216
C          4.36437       -0.86662       -0.00038
H         -4.80184       -1.33244       -0.00122
H         -4.37750        0.13688        0.88461
H         -4.37739        0.13908       -0.88335
H         -2.45629       -1.51632        0.87744
H         -2.45621       -1.51418       -0.88005
H         -1.87428        0.93193       -0.88067
H         -1.87458        0.92988        0.88394
H          4.40715       -1.82588       -0.52667
H          5.06638       -0.17919       -0.48364
H          4.71125       -1.03242        1.02544
