19
../xyz/dsC7O2H10nsd_5337.xyz
C          3.06319       -0.71491        0.80186
C          2.35829       -0.48282       -0.54739
C          0.95566        0.02691       -0.41018
C         -0.18068       -0.56566       -0.77253
C         -1.35748        0.32050       -0.45411
O         -0.79279        1.48714        0.13029
C          0.63046        1.38570        0.16180
C         -2.28670       -0.35963        0.55281
O         -3.19806       -1.08153        0.24855
H          2.51293       -1.43920        1.40999
H          4.07401       -1.10167        0.64341
H          3.14874        0.21126        1.37853
H          2.94631        0.23568       -1.13511
H          2.34620       -1.41656       -1.11906
H         -0.29394       -1.54016       -1.22950
H         -1.95113        0.57593       -1.34476
H          1.07939        2.19704       -0.43396
H          0.98306        1.51206        1.19568
H         -2.01528       -0.13975        1.61044
