19
../xyz/dsC7O2H10nsd_3544.xyz
C         -2.24637       -0.57281       -0.58575
C         -0.91278       -0.42071        0.10530
C         -0.35330       -1.54072        0.91899
C          0.34649       -1.13701       -0.37788
C          1.49593       -0.20409       -0.20086
O          2.57695       -0.28210       -0.72841
C          1.03409        0.92603        0.73636
C         -0.49676        0.98291        0.56315
O         -0.86204        1.87218       -0.48607
H         -2.31045        0.08119       -1.45761
H         -2.40052       -1.60659       -0.90942
H         -3.06640       -0.31004        0.09278
H          0.14188       -1.35164        1.86583
H         -0.88709       -2.48416        0.88323
H          0.35796       -1.82768       -1.21148
H          1.32693        0.68996        1.76580
H          1.52159        1.86586        0.46833
H         -1.01355        1.26057        1.49458
H         -0.59355        2.76034       -0.23202
