19
../xyz/dsC7O2H10nsd_2653.xyz
C          2.18981       -1.37927       -0.59249
C          1.26696       -0.18125       -0.59798
C          1.08660        0.67868        0.62064
C          0.94466        2.18218        0.52079
C         -0.03786       -0.22481        0.16603
C         -0.76795       -1.36997        0.85415
O         -2.02855       -0.87469        0.28981
C         -1.38933        0.17328       -0.34229
O         -1.87451        1.01893       -1.02632
H          1.87788       -2.12803       -1.32825
H          3.21470       -1.07966       -0.83528
H          2.21057       -1.86324        0.38963
H          1.19536        0.34149       -1.54957
H          1.60106        0.31965        1.51063
H          0.35012        2.46146       -0.35287
H          0.44519        2.59077        1.40528
H          1.92748        2.65836        0.43895
H         -0.55498       -2.37963        0.49428
H         -0.80027       -1.34813        1.94616
