19
../xyz/dsC7O2H10nsd_3182.xyz
C          2.45483        0.77280        0.42787
C          0.99815        0.54935        0.12556
C          0.16938        1.54231       -0.19695
C         -1.28819        1.40306       -0.53641
C         -1.84274        0.02353       -0.28278
O         -1.75947       -0.46025        1.06583
C         -0.95085       -1.08571        0.06906
C          0.54799       -0.89168        0.20288
O          1.22322       -1.60717       -0.83978
H          2.69723        0.45879        1.45188
H          3.08101        0.17542       -0.24301
H          2.73114        1.82483        0.32081
H          0.56232        2.55666       -0.23035
H         -1.87805        2.13876        0.02817
H         -1.44631        1.65363       -1.59577
H         -2.78935       -0.20635       -0.77236
H         -1.24745       -2.10600       -0.18391
H          0.85454       -1.29362        1.18420
H          1.19355       -2.54470       -0.62344
