19
../xyz/dsC7O2H10nsd_5212.xyz
O          2.90324       -0.51413       -0.34812
C          1.98363       -0.22179        0.69672
C          0.59968        0.06116        0.17596
C          0.28563        1.36468       -0.62812
C         -1.13929        1.20643       -0.11204
C         -0.69006        0.34806        1.05775
C         -1.44433       -0.30677       -0.06013
O         -2.73628       -0.78241        0.02566
C         -0.21109       -1.03933       -0.57740
H          2.95548        0.26167       -0.91581
H          1.97281       -1.10946        1.33906
H          2.33299        0.62306        1.31326
H          0.77875        2.23866       -0.18799
H          0.46170        1.34804       -1.71099
H         -1.95293        1.92114       -0.11814
H         -0.86938        0.41404        2.12075
H         -3.16740       -0.64822       -0.82580
H         -0.10156       -2.01436       -0.09381
H         -0.05114       -1.13694       -1.65724
