19
../xyz/dsC7O2H10nsd_4653.xyz
C          2.81173       -0.83054        0.67768
C          2.30279        0.00748       -0.51276
C          0.99842        0.69749       -0.17990
O          0.91093        1.86628        0.12049
C         -0.27838       -0.18422       -0.22099
O         -0.19189       -1.34883       -0.55900
C         -1.54438        0.47498        0.16080
C         -2.81402       -0.00564       -0.53595
C         -2.58094       -0.38327        0.88160
H          2.10225       -1.62324        0.92594
H          3.76796       -1.29644        0.42496
H          2.96320       -0.20476        1.56236
H          3.02723        0.78328       -0.77279
H          2.14799       -0.65055       -1.37247
H         -1.46636        1.51952        0.42712
H         -3.55564        0.74987       -0.76754
H         -2.67205       -0.77279       -1.28876
H         -3.15602        0.10307        1.66084
H         -2.28217       -1.40533        1.08548
