19
../xyz/dsC7O2H10nsd_0069.xyz
C         -3.31527       -0.09766       -0.21356
O         -1.93492       -0.04193       -0.48224
C         -1.15650       -0.62168        0.55283
C          0.29131       -0.46782        0.22939
C          1.20012       -1.46102        0.04624
O          2.42844       -0.95215       -0.21940
C          2.29452        0.40504       -0.21221
C          1.01510        0.77130        0.05854
C          0.45520        2.15594        0.15287
H         -3.57597        0.44076        0.71211
H         -3.83137        0.37338       -1.05356
H         -3.67162       -1.13567       -0.11489
H         -1.39585       -0.12755        1.51138
H         -1.40885       -1.68828        0.67329
H          1.12962       -2.53656        0.07441
H          3.19258        0.96443       -0.41859
H          0.09336        2.37428        1.16519
H          1.20941        2.90689       -0.09773
H         -0.39635        2.27634       -0.52312
