19
../xyz/dsC7O2H10nsd_1951.xyz
C          2.59317        0.30139       -0.58390
C          1.19745        0.09476       -0.09471
O          1.00567       -0.30827        1.26622
C          0.30985        0.85559        0.81569
C         -0.97025        0.40081        0.05942
C         -1.92058        1.48253       -0.39496
C         -1.50428       -0.99849        0.46232
O         -0.61124       -1.65983       -0.47189
C         -0.05298       -0.40864       -0.89123
H          3.17813        0.85973        0.15211
H          3.08761       -0.66146       -0.75490
H          2.59732        0.85449       -1.52876
H          0.46991        1.77682        1.36802
H         -1.38066        2.31591       -0.85886
H         -2.63820        1.09913       -1.12730
H         -2.48824        1.88909        0.45066
H         -1.32239       -1.31177        1.49402
H         -2.55320       -1.17161        0.19147
H         -0.01997       -0.27327       -1.97689
