19
../xyz/dsC7O2H10nsd_4338.xyz
O         -2.03254       -1.21407       -0.10799
C         -0.73627       -0.64396       -0.34668
C          0.32849       -1.61966        0.15704
C          1.77044       -1.19701        0.14919
C          2.30795        0.01891       -0.02377
C          1.65251        1.30964       -0.21815
C          0.36399        1.62546       -0.04399
C         -0.75251        0.71588        0.38296
O         -1.96332        1.39814        0.10812
H         -2.21972       -1.85242       -0.80163
H         -0.60661       -0.44787       -1.41904
H          0.04553       -1.92442        1.17511
H          0.24110       -2.53866       -0.44085
H          2.46287       -2.02053        0.31266
H          3.39475        0.06985       -0.01208
H          2.32068        2.11554       -0.51257
H          0.03621        2.64498       -0.22365
H         -0.66950        0.51077        1.46690
H         -2.64607        0.71464        0.11455
