19
../xyz/dsC7O2H10nsd_0230.xyz
C          2.40775       -0.00012        0.03741
C          1.18614       -0.75335        0.49623
O          0.41033       -1.36882       -0.49084
C         -0.86678       -0.78287       -0.66039
C         -1.84637       -0.77892        0.55061
C         -1.84609        0.77901        0.55084
C         -0.86669        0.78294       -0.66032
O          0.41049        1.36878       -0.49101
C          1.18626        0.75335        0.49611
H          3.28522       -0.00014        0.67444
H          2.59566       -0.00023       -1.02981
H          1.22412       -1.29057        1.44205
H         -1.27052       -1.23672       -1.56785
H         -2.81139       -1.24856        0.34737
H         -1.42921       -1.23379        1.45164
H         -2.81097        1.24913        0.34798
H         -1.42854        1.23340        1.45193
H         -1.27061        1.23685       -1.56768
H          1.22434        1.29069        1.44186
