19
../xyz/dsC7O2H10nsd_0470.xyz
C          2.68672        0.62510       -0.13502
C          2.58978       -0.85124        0.15035
C          1.41285        0.05484        0.42809
C          0.18174       -0.03787       -0.44475
O         -0.53055        1.20516       -0.52712
C         -1.65640        1.20013        0.34461
C         -1.96884       -0.25573        0.60216
O         -2.07084       -1.02010       -0.60308
C         -0.82810       -1.02816        0.10557
H          3.30378        1.23652        0.51338
H          2.67751        0.94543       -1.17150
H          2.52034       -1.52767       -0.69574
H          3.13735       -1.25483        0.99445
H          1.20593        0.27116        1.47327
H          0.47814       -0.29317       -1.47079
H         -1.43967        1.70828        1.29822
H         -2.47098        1.73537       -0.15538
H         -2.60051       -0.56403        1.43062
H         -0.50723       -1.97994        0.51894
