19
../xyz/dsC7O2H10nsd_3415.xyz
C         -1.32012        2.20622        0.32774
C         -0.15058        1.24973        0.43442
C          0.47418        0.69165       -0.79902
O          1.81641        0.33047       -0.83286
C          2.09943       -0.47393        0.31801
C          0.77539       -1.15898        0.72213
C         -0.30007       -0.25565        0.13765
C         -1.57764       -0.85777       -0.27955
O         -1.83989       -2.03509       -0.17695
H         -2.01759        2.08792        1.16345
H         -0.95746        3.23917        0.33419
H         -1.88468        2.06579       -0.59854
H          0.52028        1.45910        1.26387
H          0.09582        0.97505       -1.77560
H          2.88839       -1.17728        0.04094
H          2.48234        0.15917        1.12956
H          0.67086       -2.14946        0.27240
H          0.69855       -1.27652        1.80675
H         -2.31222       -0.15360       -0.72686
