19
../xyz/dsC7O2H10nsd_5072.xyz
C         -3.10914        0.25138        0.01078
C         -1.90142       -0.33271       -0.73443
C         -0.59533       -0.13817        0.00231
C         -0.14051       -1.09633        1.06089
C          0.64064       -0.97549       -0.23975
C          1.81100       -0.05026       -0.16823
O          2.96341       -0.27132       -0.40069
O          1.37366        1.18602        0.23415
C         -0.05765        1.27906        0.18296
H         -3.21907       -0.20356        1.00046
H         -3.01031        1.33319        0.15058
H         -4.03349        0.07518       -0.54682
H         -2.05736       -1.40520       -0.90002
H         -1.82595        0.12454       -1.72969
H          0.31304       -0.71972        1.97255
H         -0.71038       -2.01118        1.18288
H          0.69229       -1.81190       -0.92351
H         -0.39656        1.76029        1.10547
H         -0.33423        1.91585       -0.66672
