19
../xyz/dsC7O2H10nsd_0283.xyz
C         -0.52804        1.52865       -0.55419
C          0.52837        1.52881        0.55376
C          1.56309        0.43000        0.46335
O          1.82009       -0.14660       -0.82586
C          1.31190       -0.99560        0.21129
C         -0.00024       -1.71856       -0.00033
C         -1.31234       -0.99533       -0.21124
O         -1.81963       -0.14629        0.82629
C         -1.56328        0.43036       -0.46300
H         -1.05769        2.48780       -0.51680
H         -0.04084        1.47410       -1.53356
H          1.05855        2.48764        0.51553
H          0.04131        1.47528        1.53326
H          2.47432        0.64840        1.02564
H          2.07314       -1.67886        0.59796
H          0.14109       -2.38566       -0.86233
H         -0.14162       -2.38619        0.86125
H         -2.07395       -1.67840       -0.59754
H         -2.47481        0.64912       -1.02466
