19
../xyz/dsC7O2H10nsd_1106.xyz
C          2.74500       -0.63299       -0.73117
C          1.61244       -0.12116        0.13955
O          1.81371        0.62492        1.08003
C          0.24711       -0.57782       -0.23232
C         -0.79467       -0.56294        0.88970
C         -2.09748       -1.10717        0.32986
O         -2.05817       -0.14377       -0.76229
C         -0.88951        0.45820       -0.19835
C         -0.74887        1.93932       -0.29458
H          2.56763       -0.37188       -1.78068
H          3.69107       -0.20616       -0.39671
H          2.79595       -1.72685       -0.68133
H          0.17836       -1.34117       -1.00303
H         -0.48868       -0.46020        1.92126
H         -2.11466       -2.14349       -0.02621
H         -2.96466       -0.91807        0.97179
H         -0.69913        2.24934       -1.34421
H         -1.61211        2.43148        0.16356
H          0.15767        2.26512        0.21742
