19
../xyz/dsC7O2H10nsd_3493.xyz
C         -0.37727       -0.41296        1.72138
C         -0.25170       -0.44986        0.18284
C          0.83889       -1.48704       -0.22716
C          2.07482       -0.62598       -0.36505
C          1.77969        0.67055       -0.42052
C          0.29130        0.90168       -0.38108
O         -0.05389        2.04869        0.37371
C         -1.62391       -0.77319       -0.36103
O         -2.35609        0.03286       -0.88289
H         -0.78789       -1.35656        2.09667
H          0.60937       -0.26465        2.16843
H         -1.02017        0.40683        2.04613
H          0.95082       -2.29014        0.51040
H          0.59855       -1.97485       -1.18299
H          3.06872       -1.05111       -0.44706
H          2.47869        1.48846       -0.54731
H         -0.08430        1.02499       -1.40911
H         -0.97052        2.25380        0.15877
H         -1.95432       -1.82836       -0.21670
