19
../xyz/dsC7O2H10nsd_4090.xyz
O          2.86095       -0.76260       -0.15562
C          1.66340       -0.26092        0.39082
C          1.37790        1.25542        0.17304
C          0.04058        0.92293       -0.53393
C         -1.16155        0.76795        0.41469
O         -2.38050        0.49124       -0.29934
C         -2.21473       -0.93544       -0.13301
C         -0.86586       -0.75893        0.58437
C          0.34556       -0.62280       -0.35893
H          2.89943       -0.50490       -1.08315
H          1.67394       -0.57929        1.43798
H          1.31842        1.88166        1.06873
H          2.11579        1.70100       -0.50138
H         -0.17688        1.41270       -1.48354
H         -1.30306        1.49903        1.21728
H         -3.01173       -1.35653        0.49322
H         -2.19476       -1.47047       -1.09114
H         -0.72487       -1.27783        1.53348
H          0.44822       -1.34370       -1.17405
