19
../xyz/dsC7O2H10nsd_0260.xyz
C         -0.52596       -0.23076        1.33752
C         -1.16877       -1.07461        0.20200
C         -2.12747       -0.00084       -0.37456
O         -1.26277        1.17786       -0.38415
C         -0.06489        0.59675        0.10159
C          1.28261        1.25598        0.03229
O          2.18217        0.14056        0.07746
C          1.53121       -1.09351       -0.32804
C          0.08510       -0.74144       -0.66687
H         -1.19097        0.27689        2.03979
H          0.28319       -0.73245        1.86524
H         -1.57830       -2.07539        0.34138
H         -2.46429       -0.21172       -1.39565
H         -2.99839        0.18265        0.26347
H          1.38808        1.82731       -0.90233
H          1.52207        1.90991        0.87629
H          2.05795       -1.49337       -1.20132
H          1.63990       -1.81664        0.48836
H         -0.08551       -0.68395       -1.74528
