19
../xyz/dsC7O2H10nsd_4591.xyz
C          1.23028        2.03432       -0.22675
C          1.01674        0.56753       -0.63223
C         -0.38518        0.16414       -0.53302
C         -1.54244       -0.15912       -0.43228
C         -2.94463       -0.53796       -0.25305
O         -3.60600        0.20323        0.76177
C          1.89401       -0.39180        0.21608
C          1.94444       -1.83509       -0.24236
O          2.50964        0.01094        1.17145
H          0.61881        2.69091       -0.84964
H          0.95663        2.18330        0.81925
H          2.28183        2.30792       -0.34103
H          1.33193        0.43059       -1.67794
H         -3.50750       -0.34837       -1.17390
H         -3.00612       -1.62195       -0.06347
H         -3.06450        0.15157        1.55639
H          2.46212       -1.89270       -1.20758
H          2.48250       -2.43816        0.48957
H          0.93586       -2.22856       -0.39569
