19
../xyz/dsC7O2H10nsd_4311.xyz
O         -2.81194       -0.61572       -0.20644
C         -1.55210       -0.20148        0.30304
C         -1.26677        1.28041       -0.04784
C          0.20289        1.63904       -0.05313
C          1.09721        0.70332        0.22154
C          2.52130        0.32141       -0.09680
O          2.09090       -1.06612       -0.21874
C          0.81384       -0.75831        0.41400
C         -0.48761       -1.16037       -0.25940
H         -3.48915       -0.04505        0.17138
H         -1.54282       -0.30500        1.40154
H         -1.66952        1.46277       -1.05432
H         -1.83789        1.93420        0.62703
H          0.48475        2.63476       -0.38623
H          2.95143        0.71129       -1.02616
H          3.24855        0.44293        0.71855
H          0.83388       -1.10181        1.45992
H         -0.78396       -2.19308       -0.05566
H         -0.39950       -1.03030       -1.34300
