19
../xyz/dsC7O2H10nsd_4486.xyz
C          2.44910       -0.98960       -0.18645
C          1.29029       -0.21602        0.42902
O          1.27635        1.06510       -0.19247
C          0.08419        1.79662        0.02899
C         -1.15061        0.91869       -0.11864
C         -1.32497       -0.27582        0.85337
O         -2.14787       -0.96581       -0.15981
C         -0.99140       -0.41760       -0.89929
C         -0.05471       -0.91740        0.23995
H          2.57829       -1.95269        0.31623
H          2.26674       -1.17161       -1.25007
H          3.37590       -0.41819       -0.08974
H          1.47470       -0.09593        1.51269
H          0.09063        2.27272        1.02538
H          0.08103        2.59826       -0.71653
H         -2.07199        1.46708       -0.32383
H         -1.67708       -0.28567        1.88609
H         -0.94715       -0.59858       -1.97313
H         -0.01032       -2.00298        0.34944
