19
../xyz/dsC7O2H10nsd_0628.xyz
C          2.44515        0.07503       -0.20460
O          1.66934       -1.08601        0.09729
C          0.35819       -0.69667        0.49077
C         -0.75045       -1.43482       -0.26712
C         -2.07788       -0.70798       -0.00575
O         -2.03552        0.64966       -0.42106
C         -1.07215        1.42006        0.29280
C          0.27541        0.77844        0.19442
C          1.46180        1.21651       -0.20823
H          3.24268        0.21059        0.54526
H          2.93778       -0.06359       -1.17787
H          0.22517       -0.88418        1.57273
H         -0.52462       -1.40902       -1.33818
H         -0.82021       -2.48254        0.04431
H         -2.89290       -1.16815       -0.57052
H         -2.33724       -0.76802        1.06615
H         -1.08473        2.42074       -0.14621
H         -1.37762        1.50764        1.35108
H          1.72074        2.22395       -0.51039
