19
../xyz/dsC7O2H10nsd_5528.xyz
C          2.72209       -0.07336        0.24588
O          1.57960       -0.22241       -0.56410
C          0.56347        0.66924       -0.24387
C         -0.77722        0.60663       -1.01086
C         -1.31740        1.49219        0.17624
C         -0.36243        0.56936        1.02266
C         -1.11569       -0.76322        0.84486
O         -0.52444       -1.72547       -0.03567
C         -1.40427       -0.74127       -0.59055
H          2.51668       -0.32491        1.29696
H          3.48190       -0.75847       -0.13651
H          3.11837        0.95505        0.20850
H          0.95705        1.69729       -0.28657
H         -0.85433        0.91165       -2.05349
H         -1.01144        2.54005        0.13121
H         -2.38437        1.41586        0.39412
H         -0.02210        0.84752        2.01917
H         -1.78002       -1.14915        1.61153
H         -2.31434       -1.10926       -1.05296
