19
../xyz/dsC7O2H10nsd_4700.xyz
C          3.07380        1.50251        0.00034
C          1.64193        0.97578        0.00013
C          1.56251       -0.53643       -0.00021
O          2.53362       -1.25676       -0.00077
C          0.17219       -1.17710        0.00028
O         -0.84144       -0.20004       -0.00030
C         -2.14113       -0.76347        0.00067
C         -3.14158        0.29455       -0.00002
C         -3.98731        1.14664       -0.00054
H          3.62034        1.15221       -0.87915
H          3.08144        2.59588        0.00018
H          3.62001        1.15251        0.88016
H          1.06919        1.33661        0.86450
H          1.06945        1.33683       -0.86434
H          0.10448       -1.83222       -0.88413
H          0.10461       -1.83094        0.88568
H         -2.27936       -1.40883       -0.88336
H         -2.27876       -1.40713        0.88604
H         -4.73128        1.90465       -0.00098
