19
../xyz/dsC7O2H10nsd_3776.xyz
O          3.09747       -0.78324        0.06489
C          1.96597       -0.04483        0.41940
C          1.70236        1.18306       -0.38676
C          0.76948       -0.00906       -0.51424
C         -0.61827       -0.01452        0.00904
C         -1.28207        1.08572        0.82088
C         -1.91802        0.62114       -0.45184
O         -2.67999       -0.56674       -0.23326
C         -1.47484       -1.27684        0.15708
H          2.91423       -1.71220        0.24051
H          1.75678        0.00688        1.48800
H          1.36008        2.07301        0.12837
H          2.37146        1.36535       -1.21962
H          0.91336       -0.58741       -1.42457
H         -1.76518        0.86523        1.76967
H         -0.79266        2.05310        0.76718
H         -2.17643        1.24734       -1.29804
H         -1.55712       -1.72732        1.15406
H         -1.23190       -2.05215       -0.57990
