19
../xyz/dsC7O2H10nsd_2606.xyz
C         -0.49471        2.13060        0.24647
C         -0.25620        0.80524       -0.47423
C         -1.29446       -0.29469       -0.13998
O         -2.49272       -0.21054       -0.17501
C         -0.41502       -1.46220        0.27929
C          0.56677       -0.71419        1.24508
C          1.00363       -0.00987       -0.08238
O          2.25332        0.57631       -0.25288
C          0.73296       -1.36141       -0.78107
H          0.22972        2.89046       -0.06751
H         -1.49417        2.50619        0.01061
H         -0.43062        2.02624        1.33454
H         -0.26265        0.97867       -1.55803
H         -0.90338       -2.39724        0.54071
H          0.14282       -0.12068        2.05915
H          1.34509       -1.37983        1.62331
H          2.24110        1.45073        0.15117
H          0.46604       -1.35198       -1.84134
H          1.52342       -2.08954       -0.58849
