19
../xyz/dsC7O2H10nsd_3322.xyz
C         -1.01510        2.00197        0.23760
C         -0.35130        0.65063        0.18827
C          0.33378        0.09557        1.46329
C          0.83373       -1.30167        0.94335
C          0.32981       -1.23852       -0.51663
C          0.70085        0.23496       -0.91621
O          2.02179        0.68893       -0.84120
C         -1.06380       -0.62792       -0.29133
O         -2.19527       -0.93914       -0.52303
H         -1.76183        2.04477        1.03751
H         -0.27984        2.79304        0.42131
H         -1.52551        2.22520       -0.70437
H          1.15011        0.74623        1.79546
H         -0.36810        0.00824        2.29648
H          1.92162       -1.41363        0.99660
H          0.39692       -2.13693        1.49501
H          0.50360       -2.09130       -1.16854
H          0.34889        0.48701       -1.91880
H          2.39425        0.44889        0.01311
