19
../xyz/dsC7O2H10nsd_5220.xyz
C         -2.77224       -0.46516        0.32337
C         -1.61580       -0.61207       -0.67288
C         -0.38838        0.13291       -0.24532
O         -0.47793        1.58862       -0.02348
C          0.92446        1.27645        0.25029
C          1.00047        0.29565       -0.95686
C          1.86344       -0.87886       -0.52855
O          1.46751       -1.03375        0.85531
C          0.52077       -0.00974        1.02177
H         -2.51036       -0.89038        1.29747
H         -3.01812        0.58948        0.47304
H         -3.66644       -0.97986       -0.03916
H         -1.34663       -1.66872       -0.79549
H         -1.92018       -0.24709       -1.66173
H          1.58993        2.09348        0.52645
H          1.04923        0.68174       -1.97357
H          1.65232       -1.80292       -1.07994
H          2.93964       -0.67605       -0.58407
H          0.11765        0.02627        2.03143
