19
../xyz/dsC7O2H10nsd_5475.xyz
O         -2.67011        0.32389        0.25688
C         -1.84980       -0.85583        0.23617
C         -0.60983       -0.61983       -0.60833
C          0.75489       -1.25739       -0.24982
C          1.55642       -0.03466       -0.83369
C          2.40190        0.10726        0.44729
C          1.00827       -0.30204        0.96438
C          0.27922        0.55251       -0.16034
O         -0.07169        1.88272       -0.12378
H         -3.01295        0.45463       -0.63380
H         -1.57993       -1.03278        1.28163
H         -2.42845       -1.72534       -0.10652
H         -0.84946       -0.62189       -1.68145
H          1.06197       -2.29924       -0.31436
H          1.84200        0.09258       -1.87915
H          3.20811       -0.62014        0.58584
H          2.74315        1.11491        0.69918
H          0.68032       -0.45901        1.99227
H         -0.97669        1.90335        0.21759
