19
../xyz/dsC7O2H10nsd_5809.xyz
O          2.80551       -0.37416        0.08536
C          1.50309       -0.76079       -0.33362
C          0.50573        0.07389        0.46019
C          0.62340        1.60069        0.18796
C         -0.78107        2.02676       -0.15946
C         -1.63727        1.00620       -0.19228
C         -0.95660       -0.27423        0.12172
C         -1.64148       -1.47757        0.61105
O         -1.21761       -1.39945       -0.75076
H          3.44517       -0.86234       -0.44082
H          1.35601       -0.58322       -1.40986
H          1.32395       -1.83054       -0.15514
H          0.68714       -0.11832        1.52290
H          1.01050        2.13983        1.05958
H          1.32427        1.81502       -0.62871
H         -1.03861        3.06034       -0.36425
H         -2.69209        1.05277       -0.43512
H         -1.09410       -2.18631        1.23375
H         -2.72023       -1.46798        0.76742
