19
../xyz/dsC7O2H10nsd_0169.xyz
C          1.24210        0.10612        1.23157
C          1.78204       -0.69267        0.03386
O          1.86199        0.59159       -0.73280
C          0.53354        0.58458       -0.07191
C         -0.61347        1.52379       -0.25112
C         -1.83577        0.73936        0.30575
O         -1.98363       -0.56132       -0.24627
C         -0.91913       -1.46910        0.06364
C          0.34413       -0.86937       -0.53730
H          0.66585       -0.41383        1.99887
H          1.94446        0.82658        1.65187
H          2.64894       -1.35029       -0.03128
H         -0.50152        2.47434        0.28113
H         -0.75963        1.73224       -1.31627
H         -1.75411        0.67720        1.40339
H         -2.76230        1.26814        0.06867
H         -0.85189       -1.62176        1.15044
H         -1.20188       -2.42026       -0.39448
H          0.34469       -0.95072       -1.62666
