19
../xyz/dsC7O2H10nsd_4312.xyz
O         -1.20322       -1.36255       -0.87652
C         -1.34129       -0.66478        0.34720
C         -1.96965        0.75031        0.14333
C         -0.77125        1.59596       -0.25580
C          0.35328        1.00082        0.12760
C          1.80897        1.02508       -0.19953
C          2.01897       -0.49801       -0.41397
O          1.15935       -1.16328        0.51949
C          0.08011       -0.30144        0.84174
H         -2.08543       -1.52618       -1.22348
H         -1.90107       -1.26486        1.07858
H         -2.75211        0.73202       -0.62553
H         -2.44802        1.10215        1.06861
H         -0.85473        2.51363       -0.82644
H          2.06388        1.61868       -1.08012
H          2.41632        1.37363        0.64511
H          1.74467       -0.77334       -1.44123
H          3.04343       -0.82846       -0.21986
H          0.04925       -0.18814        1.93715
