19
../xyz/dsC7O2H10nsd_1841.xyz
C         -0.73940        2.16357        0.15884
C         -0.67259        0.66444        0.00708
C         -1.50546       -0.14441       -1.04353
C         -0.45777       -1.22218       -0.69792
O         -0.72697       -1.53190        0.67999
C         -0.92590       -0.21563        1.24089
C          0.59181       -0.07586       -0.61566
C          1.84369       -0.27079        0.18774
O          2.89051        0.27862       -0.06094
H          0.00304        2.52360        0.87940
H         -0.55098        2.66618       -0.79445
H         -1.72869        2.47520        0.51319
H         -2.54833       -0.37108       -0.80698
H         -1.40833        0.25304       -2.05516
H         -0.30551       -2.14188       -1.25946
H         -1.94875       -0.11614        1.62394
H         -0.22407       -0.04301        2.06453
H          0.84215        0.35856       -1.58531
H          1.75488       -0.97317        1.04325
