19
../xyz/dsC7O2H10nsd_5031.xyz
C         -2.73329       -0.13322        0.35464
C         -1.63212        0.51143       -0.49614
C         -0.27188       -0.07587       -0.23862
O          0.16786       -0.05737        1.18010
C          1.49378       -0.31218        0.60214
C          1.30676       -1.65183       -0.09471
C          0.10722       -1.49205       -0.66532
C          1.08963        0.68565       -0.54594
O          1.10473        2.03416       -0.21846
H         -2.83266       -1.20118        0.13534
H         -2.50351       -0.03412        1.41880
H         -3.69990        0.34190        0.16424
H         -1.85588        0.39662       -1.56430
H         -1.58714        1.58965       -0.30406
H          2.32538       -0.13779        1.28347
H          2.00998       -2.47004       -0.14261
H         -0.45770       -2.14440       -1.31567
H          1.54352        0.56121       -1.53095
H          0.71651        2.09236        0.66628
