19
../xyz/dsC7O2H10nsd_3530.xyz
O         -1.61876       -1.73405       -0.16994
C         -1.25589       -0.54082        0.48181
C         -1.78280        0.80771       -0.10791
C         -0.32520        1.29658       -0.08476
O          0.19647        2.37405       -0.15442
C          0.20284       -0.11219        0.17985
C          1.44646       -0.32015        1.07643
C          2.30058       -0.51969       -0.20396
C          0.99328       -0.76138       -1.00222
H         -2.53840       -1.92780        0.03649
H         -1.43538       -0.60253        1.56467
H         -2.14109        0.67522       -1.13471
H         -2.51193        1.38988        0.46053
H          1.70998        0.51030        1.73578
H          1.35838       -1.23656        1.66773
H          2.79104        0.40895       -0.50440
H          3.03855       -1.32455       -0.19812
H          0.89837       -0.29435       -1.98514
H          0.73315       -1.81890       -1.08341
