19
../xyz/dsC7O2H10nsd_2074.xyz
O         -0.20094        2.03565       -0.40315
C         -0.42171        0.72985        0.02687
C         -1.53084        0.50766        1.02557
C         -1.60367       -0.11451       -0.35899
O         -1.22462       -1.45359       -0.53232
C          0.07580       -1.62503        0.04329
C          0.73295       -0.24590        0.07902
C          2.00700        0.05467       -0.66862
C          1.99870        0.00800        0.84301
H         -0.00233        2.00690       -1.34618
H         -1.35635       -0.11393        1.89728
H         -2.18393        1.35793        1.18911
H         -2.36994        0.20007       -1.05765
H         -0.01940       -2.03738        1.05857
H          0.62222       -2.35119       -0.56625
H          2.48406       -0.75619       -1.20944
H          2.11500        1.03042       -1.13081
H          2.48046       -0.83188        1.33448
H          2.08531        0.95026        1.37375
