19
../xyz/dsC7O2H10nsd_5865.xyz
C          4.22067        0.02115       -0.34443
O          2.84514        0.32692       -0.32760
C          2.10372       -0.61031        0.42829
C          0.69021       -0.25756        0.41961
C         -0.48068        0.02256        0.44169
C         -1.90362        0.34111        0.41369
C         -2.16164        1.77561       -0.10821
C         -2.63382       -0.65114       -0.49705
O         -3.63681       -1.23607       -0.19104
H          4.41569       -0.96587       -0.79343
H          4.71389        0.78736       -0.94628
H          4.65458        0.02853        0.66825
H          2.23615       -1.62709        0.01810
H          2.47147       -0.64418        1.46908
H         -2.34117        0.23439        1.41254
H         -1.63037        2.50038        0.51267
H         -1.80432        1.88457       -1.13638
H         -3.23149        1.99953       -0.08013
H         -2.16012       -0.77293       -1.49687
