19
../xyz/dsC7O2H10nsd_0758.xyz
O          2.41991        0.46725       -0.69798
C          1.49461        0.16083        0.01809
C          0.63773        1.21272        0.71308
C         -0.53510        1.72229       -0.18321
C         -1.86250        1.02275        0.00451
C         -2.11704       -0.27792       -0.14246
C         -1.09244       -1.32026       -0.51342
O         -0.18453       -1.56496        0.57036
C          1.16354       -1.31683        0.26173
H          0.23941        0.82952        1.65556
H          1.30755        2.05211        0.91794
H         -0.67651        2.78499        0.02951
H         -0.21804        1.67384       -1.23378
H         -2.68817        1.66657        0.30010
H         -3.12704       -0.63491        0.03984
H         -1.58408       -2.26881       -0.75827
H         -0.53241       -1.00795       -1.40626
H          1.74703       -1.64326        1.13281
H          1.51633       -1.89189       -0.60640
