19
../xyz/dsC7O2H10nsd_1794.xyz
O         -2.48944       -0.88348        0.00173
C         -1.27083       -0.21592       -0.01113
C         -0.83254        0.82542        1.06787
C          0.22359        1.18482       -0.01935
C         -0.87646        0.85965       -1.07409
C          1.04465       -0.09795       -0.05431
C          2.39390       -0.23409       -0.59955
O          2.16063       -0.23266        0.81844
C         -0.06127       -1.16798       -0.05653
H         -3.19436       -0.22927        0.04583
H         -1.57238        1.61930        1.20458
H         -0.47668        0.45866        2.03379
H          0.76576        2.12827       -0.01241
H         -1.61767        1.65968       -1.15592
H         -0.56734        0.52106       -2.06704
H          2.71846       -1.18708       -1.01633
H          2.91717        0.64049       -0.98584
H         -0.06642       -1.79582       -0.95185
H         -0.00226       -1.80979        0.82624
