19
../xyz/dsC7O2H10nsd_5369.xyz
C          3.24959       -0.28797        0.51803
C          2.32895        0.28389       -0.57521
C          0.86511        0.24729       -0.21884
C          0.10305        1.32988       -0.08979
C         -1.34176        1.23696        0.29986
C         -1.98174       -0.11848        0.04154
O         -3.17043       -0.27462       -0.02245
O         -1.16698       -1.18347       -0.13350
C          0.25669       -1.10933        0.01471
H          3.04091       -1.34467        0.71419
H          4.29813       -0.21165        0.21583
H          3.12616        0.25841        1.45835
H          2.61416        1.31966       -0.78726
H          2.49048       -0.28176       -1.50375
H          0.51823        2.32104       -0.25336
H         -1.47487        1.45625        1.37000
H         -1.95841        1.97443       -0.22237
H          0.51068       -1.48408        1.01675
H          0.65443       -1.83634       -0.70258
