19
../xyz/dsC7O2H10nsd_3030.xyz
O         -1.86381       -1.18845       -0.58505
C         -0.55880       -0.67664       -0.69261
C          0.43525       -1.28575        0.34831
C         -0.12874       -0.24503        1.36823
C         -0.40313        0.64283        0.13162
O         -1.55476        1.45332        0.22626
C          0.86266        1.39416       -0.29499
C          2.02414        0.42595       -0.36872
C          1.82638       -0.85605       -0.05539
H         -2.43406       -0.42997       -0.39531
H         -0.21979       -0.67358       -1.73725
H          0.33452       -2.34599        0.57573
H         -1.06679       -0.58437        1.80831
H          0.54535        0.13751        2.13723
H         -1.54990        2.08015       -0.50682
H          0.69946        1.86949       -1.27563
H          1.06923        2.21016        0.41186
H          2.99524        0.80653       -0.66969
H          2.62877       -1.58565       -0.09686
