19
../xyz/dsC7O2H10nsd_1712.xyz
C         -1.06291        1.28611        1.02655
C         -0.49494        0.21509        0.09135
C          0.36154        0.81280       -1.07314
C          1.82018        0.86662       -0.55650
C          1.88779       -0.25958        0.45097
O          1.31663       -1.48793       -0.02484
C          0.52615       -0.65393        0.83164
C         -1.59681       -0.65862       -0.48422
O         -2.77597       -0.49914       -0.29644
H         -1.81347        1.88574        0.50622
H         -1.55335        0.83393        1.89356
H         -0.27136        1.95013        1.38697
H          0.30974        0.15567       -1.94527
H         -0.01742        1.79106       -1.37724
H          2.54852        0.75623       -1.36536
H          2.03523        1.81372       -0.04797
H          2.73749       -0.37220        1.11929
H          0.27269       -1.07853        1.80031
H         -1.21940       -1.49005       -1.12012
