19
../xyz/dsC7O2H10nsd_2907.xyz
O         -2.75782        0.10628        0.31894
C         -1.36652       -0.03046        0.40747
C         -0.68304       -0.98396       -0.54489
C          0.72584       -1.47619       -0.26621
C          1.45855       -1.02485        0.97562
C          1.66505       -0.29011       -0.32390
C          0.83772        0.97530       -0.57337
O          1.02138        1.88468        0.50964
C         -0.61719        0.51801       -0.76896
H         -3.15629       -0.65099        0.76080
H         -0.95769        0.12070        1.40349
H         -1.32903       -1.59995       -1.16056
H          1.00461       -2.42968       -0.70056
H          0.93084       -0.52794        1.77920
H          2.27669       -1.65085        1.31605
H          2.63508       -0.35481       -0.80301
H          1.18294        1.43941       -1.50926
H          0.39796        2.60848        0.39033
H         -1.21593        0.99155       -1.53972
