19
../xyz/dsC7O2H10nsd_3975.xyz
C         -2.69245       -0.83379        0.07853
C         -1.28048       -0.47852       -0.38031
C         -0.08165       -1.00273        0.47985
C          1.20000       -1.37777       -0.29736
C          1.59708        0.12467       -0.37225
O          2.90177        0.48331       -0.01240
C          0.43824        0.47615        0.64886
C         -0.83348        0.96177       -0.03428
O         -1.36304        2.02967       -0.15747
H         -2.82023       -0.64217        1.14919
H         -3.42898       -0.22844       -0.45752
H         -2.91223       -1.89004       -0.10551
H         -1.16789       -0.70026       -1.44889
H         -0.37142       -1.62050        1.32979
H          1.91173       -1.92449        0.33121
H          1.08875       -1.92203       -1.23979
H          1.43871        0.57416       -1.35596
H          3.10283        0.08398        0.84115
H          0.76543        0.94719        1.57705
