19
../xyz/dsC7O2H10nsd_5413.xyz
C         -2.95434        0.21296       -0.45990
O         -1.79501       -0.60062       -0.40429
C         -0.62077        0.13442       -0.47255
C         -0.03623        0.75198        0.76855
O          0.60226        1.98378        0.70804
C          0.61336       -0.50314        0.16273
C          0.47047       -1.83000        0.89270
C          1.86967       -0.26878       -0.49259
C          2.93866       -0.01256       -0.98611
H         -3.01350        0.76213       -1.41076
H         -3.81571       -0.45357       -0.37937
H         -2.97776        0.94021        0.36327
H         -0.45978        0.68449       -1.40127
H         -0.57554        0.58239        1.69877
H          1.52454        1.83159        0.46129
H          0.61055       -2.66591        0.20109
H          1.21753       -1.91367        1.68744
H         -0.52619       -1.91816        1.32729
H          3.87295        0.17601       -1.45467
