19
../xyz/dsC7O2H10nsd_2959.xyz
C          0.49805        2.10650       -0.69129
C          1.14148        1.00041        0.11558
C          0.39719        0.17762        1.13524
O         -1.01598        0.22820        1.10423
C         -1.50398       -0.36371       -0.02952
O         -2.67346       -0.41538       -0.26742
C         -0.33719       -0.88535       -0.87341
C          0.91714       -0.49316       -0.11446
C          2.09063       -1.44396       -0.10665
H          1.00697        2.23410       -1.65253
H         -0.55914        1.92272       -0.89567
H          0.56023        3.05687       -0.15155
H          2.16250        1.22099        0.42044
H          0.77702       -0.00172        2.13405
H         -0.43145       -1.97280       -0.96330
H         -0.41920       -0.47346       -1.88362
H          2.55745       -1.50784       -1.09623
H          2.86042       -1.11642        0.59917
H          1.78081       -2.45512        0.18174
