19
../xyz/dsC7O2H10nsd_3734.xyz
C         -2.81210       -0.14361       -0.52693
C         -1.43887       -0.69301       -0.24921
O         -1.01901       -0.73005        1.13132
C         -0.33166        0.13107        0.24539
C         -0.19168        1.65706        0.36353
C          1.21301        1.53611       -0.31668
C          1.13454        0.01751       -0.10324
C          2.11501       -0.91409        0.45378
O          1.70113       -0.98405       -0.92212
H         -2.92502        0.08031       -1.59335
H         -3.57970       -0.87587       -0.25586
H         -2.99446        0.76969        0.04512
H         -1.16355       -1.58991       -0.80558
H         -0.93692        2.26202       -0.15633
H         -0.13240        1.98063        1.40548
H          1.19256        1.79845       -1.37731
H          2.04044        2.05895        0.16594
H          3.14097       -0.58570        0.61424
H          1.77152       -1.73204        1.08416
