19
../xyz/dsC7O2H10nsd_2805.xyz
O         -2.88492       -0.66669       -0.55447
C         -1.53154       -0.33085       -0.42936
C         -1.19010        0.95701        0.26071
C         -0.91521       -0.41175        0.93980
C          0.59848       -0.11174        0.93660
C          1.45871       -0.55480       -0.29406
O          2.80549       -0.87906       -0.03308
C          1.19663        0.84152       -0.95914
C          0.32295        1.26501        0.26006
H         -3.34927       -0.37374        0.23700
H         -1.01106       -0.66324       -1.32146
H         -1.97029        1.68526        0.45740
H         -1.44992       -0.91298        1.74010
H          1.09128       -0.18792        1.90757
H          1.06034       -1.41230       -0.84171
H          3.20179       -0.14956        0.45564
H          2.12391        1.41755       -1.03952
H          0.71436        0.83746       -1.94009
H          0.58474        2.19913        0.75785
