19
../xyz/dsC7O2H10nsd_0595.xyz
C          1.41285       -0.32070       -0.97438
C          1.52323        0.97015       -0.15784
C          0.21114        1.17283        0.62777
O         -0.00665        0.00011        1.42112
C         -0.18957       -1.13154        0.60056
C         -1.47782       -0.99324       -0.24119
C         -1.74657        0.42444       -0.66975
C         -0.97014        1.43001       -0.27468
O          0.96439       -1.40769       -0.16799
H          0.73882       -0.17274       -1.83029
H          2.38767       -0.62396       -1.36583
H          2.34516        0.88681        0.56054
H          1.72592        1.82063       -0.81797
H          0.32380        1.99146        1.34530
H         -0.27453       -1.98273        1.28071
H         -1.40039       -1.65824       -1.10985
H         -2.32619       -1.36497        0.34927
H         -2.61162        0.60061       -1.30417
H         -1.14929        2.45206       -0.59576
