19
../xyz/dsC7O2H10nsd_0837.xyz
O          2.73182       -0.52964        0.36404
C          2.15337        0.25636       -0.34293
C          0.69177        0.18563       -0.71889
C         -0.09196        1.45764       -0.21880
C         -1.19592        0.80837        0.63975
C         -0.46621       -0.36303        1.30790
C         -0.07931       -0.97885       -0.05441
C         -1.46796       -1.03832       -0.70666
O         -2.12289        0.16106       -0.24514
H          2.68843        1.13475       -0.77543
H          0.65612        0.12975       -1.81478
H          0.54270        2.12473        0.37638
H         -0.52053        2.03711       -1.03810
H         -1.75481        1.49674        1.27433
H          0.39585       -0.07079        1.91039
H         -1.13494       -0.99355        1.89851
H          0.46442       -1.92182       -0.03495
H         -1.43068       -1.03874       -1.80308
H         -2.04070       -1.91634       -0.38016
