19
../xyz/dsC7O2H10nsd_4856.xyz
C          2.56357       -0.37154       -0.67001
O          1.44515        0.49200       -0.71085
C          0.38731        0.23239        0.21402
C          0.86876        0.03068        1.65637
C         -0.57211        1.40945        0.11011
C         -1.76328        1.06517       -0.38021
C         -1.80063       -0.39990       -0.66531
O         -1.62157       -1.22454        0.51812
C         -0.48557       -0.93362       -0.29531
H          2.28608       -1.43364       -0.73126
H          3.17276       -0.12566       -1.54346
H          3.17349       -0.22730        0.23180
H          0.00250       -0.11263        2.30487
H          1.50960       -0.85020        1.75267
H          1.42926        0.90579        1.99947
H         -0.27948        2.39547        0.45283
H         -2.60876        1.72630       -0.52522
H         -2.44151       -0.83169       -1.42745
H         -0.02082       -1.78201       -0.79046
