19
../xyz/dsC7O2H10nsd_6043.xyz
C          3.14240       -0.77594       -0.05834
O          1.76003       -0.61336       -0.28925
C          1.36850        0.75402       -0.34986
C         -0.09946        0.80648       -0.68611
C         -1.03984        1.67420        0.11513
C         -1.05439        0.17711        0.32080
O         -0.48930       -0.27450        1.52048
C         -2.16852       -0.59238       -0.17377
C         -3.09221       -1.24396       -0.58469
H          3.45464       -0.31918        0.89360
H          3.34374       -1.84897       -0.02075
H          3.74101       -0.32905       -0.86664
H          1.56580        1.23924        0.61697
H          1.96059        1.28263       -1.11373
H         -0.34473        0.64344       -1.72992
H         -0.62130        2.24961        0.93354
H         -1.88251        2.12750       -0.39214
H          0.18765       -0.91871        1.27043
H         -3.90961       -1.82076       -0.94016
