19
../xyz/dsC7O2H10nsd_3284.xyz
C         -2.54295       -0.65874        0.54221
C         -1.03065       -0.59067        0.53402
C         -0.31295       -0.70199       -0.80116
O          1.00658       -1.18890       -0.84654
C          1.89540       -0.22365       -0.32871
C          1.90802        0.02042        1.15694
C          1.10649        0.92639        0.24106
C         -0.34658        0.61908       -0.08957
O         -1.10419        1.67389       -0.60075
H         -2.96385       -0.17281       -0.34181
H         -2.88532       -1.69863        0.55833
H         -2.95961       -0.15810        1.42372
H         -0.54688       -1.05272        1.38859
H         -0.88943       -0.91178       -1.69694
H          2.80040       -0.12281       -0.91774
H          1.40361       -0.67966        1.81214
H          2.81865        0.43961        1.57321
H          1.40315        1.95933        0.10717
H         -1.46051        2.17256        0.14295
