19
../xyz/dsC7O2H10nsd_4599.xyz
C          3.74436        0.08442        0.84745
C          3.12780       -0.19414       -0.53566
C          1.66934       -0.14615       -0.53163
C          0.46501       -0.09794       -0.52392
C         -0.99026       -0.03780       -0.46298
C         -1.57607       -1.31477        0.19066
O         -2.97403       -1.23212        0.36830
C         -1.41738        1.18819        0.35208
O         -2.09351        2.08216       -0.07574
H          4.83581        0.03857        0.79239
H          3.45866        1.07629        1.20770
H          3.40487       -0.65221        1.58057
H          3.51117        0.53343       -1.26228
H          3.45626       -1.17860       -0.89280
H         -1.41677        0.08537       -1.46699
H         -1.27526       -2.18760       -0.40540
H         -1.14833       -1.43693        1.19068
H         -3.38884       -1.15219       -0.49709
H         -1.03405        1.18266        1.39668
