19
../xyz/dsC7O2H10nsd_4320.xyz
O          0.30305       -1.61554       -0.81228
C          0.93000       -1.09673        0.35087
C          2.02599       -0.13148       -0.11614
C          1.48103        1.21088       -0.52426
C          0.26702        1.65337       -0.20198
C         -0.70972        0.84439        0.62889
C         -0.05812       -0.38304        1.28365
C         -1.92630        0.51358       -0.22104
O         -2.34254       -0.59614       -0.45260
H         -0.64149       -1.71579       -0.63835
H          1.40014       -1.91883        0.91341
H          2.77711       -0.00077        0.67630
H          2.55150       -0.59332       -0.95945
H          2.13881        1.85273       -1.10581
H         -0.06727        2.63252       -0.53535
H         -1.10612        1.50961        1.41444
H          0.48372       -0.05930        2.17907
H         -0.83325       -1.08350        1.61185
H         -2.44661        1.40440       -0.63704
