19
../xyz/dsC7O2H10nsd_1058.xyz
C         -4.83727       -0.71331        0.01960
C         -3.51165       -0.11430       -0.01616
C         -2.41244        0.37372       -0.04688
C         -1.09510        0.99035       -0.08675
O         -0.08694       -0.00249        0.02583
C          1.21160        0.54489       -0.00195
C          2.21034       -0.60772        0.09492
C          3.62291       -0.11853        0.31878
O          4.56827       -0.40058       -0.37021
H         -5.32839       -0.54395        0.98398
H         -5.48246       -0.29749       -0.76196
H         -4.78102       -1.79570       -0.13930
H         -0.96893        1.55250       -1.02814
H         -0.99632        1.72413        0.73216
H          1.37490        1.11672       -0.93077
H          1.35387        1.24749        0.83865
H          1.92513       -1.22008        0.96173
H          2.17960       -1.23571       -0.79810
H          3.74257        0.54613        1.20732
