19
../xyz/dsC7O2H10nsd_2724.xyz
C          2.46334        0.24108        0.19875
C          1.02170       -0.18928        0.08553
C          0.00622       -0.07160        1.28177
C         -1.02173       -0.21964        0.12694
O         -2.33887        0.18947        0.33834
C         -0.67486       -1.61014       -0.41121
C          0.66186       -1.58433       -0.44186
C         -0.03716        0.64433       -0.74644
O         -0.05730        2.02032       -0.46739
H          2.99000        0.11728       -0.75427
H          2.52608        1.29571        0.48220
H          2.99547       -0.34728        0.95445
H          0.02281       -0.86080        2.03589
H          0.00310        0.92210        1.73344
H         -2.86525       -0.05796       -0.43013
H         -1.37489       -2.37734       -0.71382
H          1.36242       -2.33305       -0.78681
H         -0.04379        0.45433       -1.82858
H         -0.96283        2.24608       -0.22077
