19
../xyz/dsC7O2H10nsd_1754.xyz
C         -2.36630        0.01500       -0.49713
C         -0.92032        0.02066       -0.08095
C         -0.29716        0.89125        0.99122
C          0.97265        1.49639        0.41245
O          1.05959        1.04075       -0.94143
C          0.24184       -0.11423       -1.09020
C          0.96340       -1.37267       -0.59238
O          0.84992       -1.32673        0.83581
C         -0.32910       -0.61950        1.13850
H         -2.59151        0.85545       -1.16332
H         -2.63025       -0.91008       -1.02241
H         -3.02420        0.09698        0.37388
H         -0.91834        1.48869        1.64997
H          0.93090        2.59077        0.40226
H          1.86285        1.18400        0.97419
H         -0.06894       -0.17886       -2.13589
H          0.47932       -2.28098       -0.98424
H          2.02339       -1.38156       -0.85677
H         -0.92930       -1.07798        1.91822
