19
../xyz/dsC7O2H10nsd_4330.xyz
O          2.36603       -1.07436       -0.38090
C          1.34990       -0.29713        0.24113
C          1.35532        1.16153       -0.25354
C          0.11102        1.89970        0.18648
C         -1.06892        1.28911        0.31166
C         -1.23890       -0.15254       -0.00541
O         -2.29520       -0.45007       -0.88459
C         -0.99921       -1.20889        1.03571
C          0.02168       -0.98195       -0.06268
H          3.21620       -0.67703       -0.16570
H          1.50168       -0.28079        1.33279
H          2.25242        1.67583        0.11363
H          1.43142        1.15509       -1.35014
H          0.20179        2.95969        0.40885
H         -1.95881        1.83357        0.61793
H         -2.10720       -0.01024       -1.72148
H         -0.74772       -0.89232        2.04295
H         -1.62122       -2.09453        0.96775
H          0.07949       -1.73287       -0.84281
