19
../xyz/dsC7O2H10nsd_2242.xyz
C         -1.38918        1.79273        0.08775
C         -0.32070        0.74133        0.00515
O          0.83801        1.17509       -0.69574
C          1.95921        0.48111       -0.14093
C          1.34348       -0.73769        0.54569
C          0.50663       -1.55502       -0.49600
C         -0.70471       -0.71764       -0.10444
O         -2.02547       -1.06792       -0.29961
C          0.02899       -0.17100        1.14490
H         -1.02507        2.66679        0.63590
H         -1.67977        2.11599       -0.91662
H         -2.27752        1.39904        0.58534
H          2.64351        0.22094       -0.95567
H          2.49314        1.12312        0.57656
H          2.01744       -1.30024        1.19024
H          0.83365       -1.52897       -1.54131
H          0.38726       -2.59584       -0.17730
H         -2.18203       -1.91656        0.13070
H         -0.25323       -0.04443        2.18233
