19
../xyz/dsC7O2H10nsd_1469.xyz
C          1.90571        1.00828        0.43796
C          0.88457       -0.01093       -0.04467
O          1.61649       -1.10503       -0.55371
C         -0.21875        0.47789       -1.03133
C         -0.93325        1.61035       -0.25182
C         -1.38290        0.47264        0.68248
C         -1.37741       -0.50113       -0.51155
O         -0.79911       -1.57170        0.26140
C         -0.16647       -0.47787        1.00761
H          2.63106        0.49750        1.07728
H          2.45036        1.43627       -0.40902
H          1.45891        1.82301        1.01077
H          0.97946       -1.83399       -0.59579
H          0.06459        0.56577       -2.07836
H         -0.33945        2.44302        0.12701
H         -1.79719        2.00571       -0.79470
H         -2.19165        0.53873        1.40805
H         -2.21558       -0.77656       -1.14914
H          0.15149       -0.76114        2.01022
