19
../xyz/dsC7O2H10nsd_5647.xyz
C         -2.82995        0.09414        0.03386
O         -1.73867       -0.67606       -0.42234
C         -0.61524       -0.62636        0.41772
C          0.43410       -1.72245        0.07423
C          1.49799       -0.61348       -0.03144
O          2.69069       -0.59940       -0.16269
C          0.45801        0.45447        0.13352
C          0.66661        1.84689        0.67700
C          0.35318        1.66470       -0.77285
H         -2.59644        1.16781        0.08410
H         -3.64690       -0.05164       -0.67675
H         -3.16368       -0.23062        1.03141
H         -0.92444       -0.64491        1.47259
H          0.61241       -2.50378        0.81603
H          0.22149       -2.18418       -0.89486
H         -0.10495        2.24327        1.32906
H          1.68286        2.10635        0.95602
H         -0.63679        1.91789       -1.13471
H          1.15203        1.79602       -1.49490
