19
../xyz/dsC7O2H10nsd_4763.xyz
C          0.10487        1.74443       -0.96287
C          0.53699        0.64253        0.02387
C          2.06548        0.59425        0.17706
O          2.50119       -0.33945        1.14029
C         -0.01063       -0.71803       -0.38588
O          0.70126       -1.68304       -0.56158
C         -1.52920       -0.86874       -0.61902
C         -2.38177       -0.15719        0.32106
C         -3.08093        0.42455        1.10667
H          0.46756        1.53557       -1.97521
H         -0.98120        1.85581       -0.99819
H          0.52581        2.70500       -0.65107
H          0.09367        0.86416        1.00408
H          2.51858        0.40208       -0.80852
H          2.41583        1.57720        0.51020
H          2.28220       -1.20607        0.77645
H         -1.72850       -0.51602       -1.64116
H         -1.74053       -1.94219       -0.61347
H         -3.70192        0.93358        1.80189
