19
../xyz/dsC7O2H10nsd_1670.xyz
C         -1.11714        1.64759       -0.05092
C         -0.48920        0.25990        0.05427
C          0.39654        0.01380        1.33700
C          1.72051       -0.32861        0.62364
C          1.86499        0.76208       -0.45640
C          0.65185       -0.03537       -0.97881
O          1.26354       -1.24143       -0.42751
C         -1.55082       -0.81996       -0.05690
O         -2.73693       -0.61003       -0.11645
H         -1.57172        1.79698       -1.03517
H         -1.91521        1.75957        0.68727
H         -0.38159        2.43910        0.11256
H          0.45453        0.90200        1.97151
H          0.04744       -0.82442        1.94560
H          2.55394       -0.70799        1.21394
H          1.75663        1.81325       -0.18385
H          2.74303        0.59733       -1.08109
H          0.38362       -0.10835       -2.03311
H         -1.14398       -1.85245       -0.07731
