19
../xyz/dsC7O2H10nsd_1509.xyz
C         -1.74267       -1.29126        0.84740
C         -1.27985       -0.08616        0.01903
C         -2.39144        0.39257       -0.92514
O         -0.13963       -0.49082       -0.78007
C          0.99574        0.30947       -0.50212
C          2.14246       -0.56705        0.00812
O          3.30222       -0.25884       -0.05105
C          0.54558        1.27116        0.57120
C         -0.72541        1.03332        0.86868
H         -2.02428       -2.11438        0.18417
H         -0.94155       -1.63481        1.50695
H         -2.61111       -1.03236        1.46167
H         -3.27454        0.70946       -0.36082
H         -2.04483        1.23511       -1.52902
H         -2.68613       -0.41897       -1.59700
H          1.34752        0.82737       -1.40710
H          1.79085       -1.51946        0.46607
H          1.20492        2.01188        1.00360
H         -1.32810        1.56107        1.59746
