19
../xyz/dsC7O2H10nsd_0473.xyz
C         -2.54862       -0.60206       -0.09226
O         -1.89546        0.09180        0.97227
C         -1.54195        0.42747       -0.37282
C         -0.13319        0.12338       -0.85070
O          0.71383        1.26578       -0.67006
C          1.37630        1.15275        0.59304
C          1.54138       -0.33463        0.82927
C          2.03465       -1.13877       -0.34608
C          0.55387       -1.00235       -0.09604
H         -2.29331       -1.65635       -0.19065
H         -3.60439       -0.37056       -0.22575
H         -1.89246        1.41013       -0.69194
H         -0.17346       -0.04427       -1.93557
H          2.31761        1.70612        0.50767
H          0.77738        1.60126        1.39945
H          1.69903       -0.69139        1.83960
H          2.46362       -0.60551       -1.18906
H          2.48568       -2.10262       -0.13875
H         -0.02138       -1.86214        0.22095
