19
../xyz/dsC7O2H10nsd_3256.xyz
C         -2.69815       -0.00001        0.13158
C         -1.31059        0.00001       -0.49949
C         -0.32764       -1.05094        0.08190
O          0.81282       -1.16317       -0.78973
C          1.58012       -0.00001       -0.50487
C          1.66929        0.00001        1.02558
C          0.15426        0.00001        1.14827
C         -0.32764        1.05094        0.08190
O          0.81281        1.16315       -0.78976
H         -3.26545        0.88520       -0.17502
H         -3.26596       -0.88444       -0.17629
H         -2.65545       -0.00081        1.22621
H         -1.36771        0.00002       -1.59103
H         -0.67409       -2.04967        0.35540
H          2.48260       -0.00001       -1.11264
H          2.14785       -0.89881        1.41956
H          2.14786        0.89883        1.41954
H         -0.31850        0.00002        2.12557
H         -0.67407        2.04969        0.35538
