19
../xyz/dsC7O2H10nsd_5585.xyz
C          2.80876       -0.15444       -0.55122
O          1.81368       -0.82014        0.20934
C          0.53270       -0.61621       -0.27742
C         -0.54693       -0.70348        0.76873
C         -1.95706       -1.08586        0.33468
C         -2.34364        0.02413       -0.62522
C         -1.40232        0.96752       -0.71764
C         -0.21083        0.64739        0.12059
O          0.52199        1.66120        0.72725
H          2.66917        0.93232       -0.52634
H          3.77216       -0.40844       -0.10282
H          2.80555       -0.49322       -1.59844
H          0.34771       -1.01287       -1.27976
H         -0.19025       -0.92223        1.76821
H         -1.98292       -2.06882       -0.15354
H         -2.65219       -1.14648        1.18324
H         -3.27428        0.01045       -1.18129
H         -1.44326        1.85563       -1.33824
H         -0.02108        2.05086        1.42129
