19
../xyz/dsC7O2H10nsd_0133.xyz
C          2.08402        0.04422        0.08046
C          1.03151       -1.02218       -0.01752
C          1.03818        0.12202       -1.01020
C         -0.25467        0.91015       -0.84049
C         -0.41545        1.43542        0.58386
O         -0.28874        0.34460        1.50828
C         -0.23156       -0.91228        0.83329
C         -1.43615       -1.01220       -0.11748
O         -1.35722        0.02345       -1.10481
H          2.05246        0.72730        0.91966
H          3.08387       -0.22592       -0.24090
H          1.30983       -2.02158       -0.33643
H          1.35031       -0.05740       -2.03306
H         -0.35271        1.72330       -1.56338
H          0.34182        2.19128        0.82509
H         -1.40774        1.89265        0.69027
H         -0.28421       -1.67702        1.61216
H         -1.45182       -1.98717       -0.62286
H         -2.36948       -0.90071        0.45023
