19
../xyz/dsC7O2H10nsd_4219.xyz
C          2.59078       -1.09833        0.13768
C          1.31035       -0.44900       -0.34686
O          1.47152        0.98934       -0.52395
C          0.46654        1.27890        0.46021
C         -0.94785        1.45533       -0.15535
C         -1.19245       -0.04306        0.09889
C         -2.43967       -0.74011        0.41342
O         -1.76567       -0.93890       -0.83752
C          0.19782       -0.23748        0.70536
H          2.91863       -0.66038        1.08577
H          2.44271       -2.17448        0.28072
H          3.38727       -0.95545       -0.59918
H          0.96293       -0.92183       -1.27360
H          0.80014        1.99707        1.21206
H         -1.61342        2.11431        0.40990
H         -0.93375        1.75855       -1.20438
H         -2.43039       -1.59452        1.08969
H         -3.38741       -0.20572        0.35275
H          0.29336       -0.75853        1.65793
