19
../xyz/dsC7O2H10nsd_2259.xyz
C          2.65035        0.18488       -0.38725
C          1.20108        0.01330       -0.07164
O          0.49455       -1.00511       -0.79110
C         -0.36715       -1.23300        0.36202
C         -1.79841       -0.81306        0.04843
O         -1.83330        0.40505       -0.66542
C         -1.08863        1.47222       -0.10410
C          0.26952        1.08577        0.45493
C          0.42148       -0.22081        1.20232
H          3.18474       -0.76467       -0.28405
H          2.77858        0.53646       -1.41719
H          3.10731        0.92024        0.28112
H         -0.30766       -2.27146        0.70216
H         -2.28717       -1.54458       -0.60247
H         -2.36841       -0.75805        0.99328
H         -0.98913        2.20922       -0.90833
H         -1.66294        1.94780        0.71158
H          0.79861        1.91894        0.91290
H          0.72665       -0.32925        2.23488
