19
../xyz/dsC7O2H10nsd_5954.xyz
O          3.47490        0.06317       -0.00430
C          2.13904       -0.41471        0.02783
C          1.11619        0.72348        0.09595
C         -0.31739        0.26088        0.10044
C         -0.92003       -0.86530        1.01326
C         -1.87784       -0.86738       -0.21205
O         -0.71513       -0.57429       -1.05191
C         -2.53521        0.52202       -0.09273
C         -1.47017        1.29337        0.12326
H          3.60454        0.51507       -0.84408
H          1.91289       -1.05997       -0.83196
H          2.07142       -1.03579        0.92716
H          1.30432        1.32910        0.99045
H          1.25707        1.38569       -0.76996
H         -0.29359       -1.75934        1.05969
H         -1.31660       -0.58912        1.99229
H         -2.46197       -1.72960       -0.52949
H         -3.58607        0.76080       -0.16248
H         -1.37771        2.35799        0.28222
