19
../xyz/dsC7O2H10nsd_4215.xyz
O         -2.00208       -0.25360       -0.91211
C         -1.48771        0.23473        0.32420
C         -0.74109       -0.86829        1.09157
C          0.49507       -1.41829        0.41378
O          0.67487       -1.14803       -0.99376
C          1.61806       -0.60199       -0.05998
C          1.75984        0.89639        0.07783
C          0.55170        1.79208        0.00285
C         -0.75129        1.53733        0.11188
H         -1.22279       -0.45952       -1.44645
H         -2.38044        0.46778        0.91725
H         -0.47137       -0.50980        2.09349
H         -1.45278       -1.68950        1.22984
H          0.73029       -2.45101        0.67616
H          2.58797       -1.10219       -0.10849
H          2.29555        1.08350        1.02232
H          2.46079        1.22970       -0.70063
H          0.82588        2.82951       -0.18450
H         -1.42281        2.38284       -0.02468
