19
../xyz/dsC7O2H10nsd_4539.xyz
O          0.53229       -1.42743        1.13387
C          0.61527       -1.19311       -0.25792
C          1.82325       -0.28763       -0.56337
C          1.76252        1.09581        0.13137
C          0.36465        1.64699        0.29078
C         -0.66494        0.95922       -0.17395
C         -2.11676        0.70135        0.14260
O         -1.88674       -0.72251       -0.12008
C         -0.60542       -0.42236       -0.75502
H         -0.40788       -1.54449        1.32612
H          0.72529       -2.14551       -0.80010
H          2.74150       -0.80237       -0.26554
H          1.87451       -0.16090       -1.65199
H          2.18412        1.01073        1.14135
H          2.41383        1.80076       -0.40079
H          0.23548        2.53971        0.89796
H         -2.45361        0.88730        1.16808
H         -2.85182        1.10834       -0.56458
H         -0.69718       -0.49551       -1.84764
