19
../xyz/dsC7O2H10nsd_4228.xyz
O         -2.54897        0.60720        0.15771
C         -1.41822       -0.23444        0.32956
C         -0.89319       -0.85291       -1.00104
C          0.63294       -0.75227       -0.89742
C          1.16738       -1.52923        0.35192
C          1.11633       -0.22688        1.14880
C         -0.20261        0.51890        0.87274
C          0.90529        0.58065       -0.12162
O          1.43769        1.75978       -0.59800
H         -2.27914        1.34039       -0.40710
H         -1.76170       -1.00741        1.02410
H         -1.24665       -1.87602       -1.16131
H         -1.26371       -0.24272       -1.83424
H          1.17135       -0.91896       -1.83103
H          0.55828       -2.37157        0.69893
H          2.19569       -1.87400        0.21205
H          1.68513        0.01065        2.04046
H         -0.37609        1.37486        1.51573
H          2.35952        1.60600       -0.83293
