19
../xyz/dsC7O2H10nsd_2932.xyz
C         -2.33601       -1.16695       -0.31972
C         -0.87349       -0.77092       -0.30178
C         -0.27811       -0.43147        1.05394
C          1.23676       -0.13781        0.98823
C          2.09502       -0.81237       -0.10446
O          1.71058        0.19099       -1.08250
C          0.96566        0.93324       -0.08385
C         -0.55595        0.66244        0.01306
O         -1.50666        1.66700        0.05795
H         -2.78258       -0.98019       -1.30305
H         -2.45321       -2.23359       -0.10297
H         -2.91165       -0.60233        0.41871
H         -0.26081       -1.27937       -1.04112
H         -0.82036       -0.66993        1.96130
H          1.70948        0.10027        1.93959
H          3.17365       -0.77455        0.08971
H          1.81956       -1.82698       -0.41421
H          1.26248        1.98203       -0.00314
H         -1.89121        1.76368       -0.82097
