19
../xyz/dsC7O2H10nsd_1006.xyz
C          2.90941       -1.73357        0.04388
C          1.96199       -0.63812       -0.10628
C          1.17667        0.26594       -0.23273
C          0.21737        1.36245       -0.35531
C          0.65925        2.59923        0.45238
C         -1.18665        0.92481        0.09001
O         -1.66817       -0.11257       -0.78405
C         -1.98836       -1.29457       -0.23408
O         -1.96979       -1.57913        0.93077
H          3.16874       -2.17270       -0.92579
H          3.83932       -1.39421        0.51338
H          2.49440       -2.53136        0.66944
H          0.14442        1.64852       -1.41339
H          1.64547        2.93570        0.12507
H         -0.04936        3.42291        0.31765
H          0.71973        2.36422        1.51920
H         -1.18292        0.55800        1.11768
H         -1.88539        1.76228       -0.00002
H         -2.28873       -1.97686       -1.04418
