19
../xyz/dsC7O2H10nsd_3620.xyz
C          2.84193       -0.77553       -0.28681
C          1.61807       -0.11416        0.34165
C          0.39074       -1.04975        0.46174
C         -0.81477       -0.12090        0.62992
C         -2.10974       -0.58091       -0.01378
O         -2.24409       -1.62883       -0.59045
C         -0.37439        1.24008        0.02610
O         -1.07203        2.21662       -0.04646
C          1.07117        1.09551       -0.43537
H          3.68613       -0.08110       -0.34750
H          3.16436       -1.64274        0.29891
H          2.61897       -1.12294       -1.30221
H          1.88495        0.22929        1.35090
H          0.26249       -1.63120       -0.45839
H          0.49302       -1.76706        1.27954
H         -1.04951        0.09197        1.68293
H         -2.93903        0.15148        0.07100
H          1.04631        0.87471       -1.51328
H          1.62319        2.02927       -0.30728
