19
../xyz/dsC7O2H10nsd_2843.xyz
C         -2.41126       -1.00459       -0.05722
C         -1.08929       -0.29160       -0.05173
O         -1.16379        1.00643       -0.62215
C         -0.17441        1.81598        0.02419
C          0.80815        0.80786        0.61087
C         -0.11991       -0.35383        1.07585
C          0.19673       -1.08015       -0.25097
C          1.36290       -0.12913       -0.51541
O          2.63003       -0.68571       -0.23777
H         -2.31581       -2.00439        0.37550
H         -3.15226       -0.44277        0.51955
H         -2.78540       -1.10892       -1.08041
H          0.27818        2.47286       -0.72633
H         -0.63933        2.43706        0.80473
H          1.55892        1.21079        1.29002
H         -0.31217       -0.71904        2.07678
H          0.19224       -2.14251       -0.47494
H          1.44639        0.30947       -1.51505
H          2.56186       -1.16568        0.59606
