19
../xyz/dsC7O2H10nsd_1390.xyz
C          1.20527        1.92396       -0.02521
C          0.57183        0.55575       -0.30068
C         -0.92022        0.60503        0.00495
O         -1.50980       -0.65311       -0.39202
C         -2.82312       -0.78299       -0.16334
O         -3.53740        0.04278        0.33441
C          1.25680       -0.57316        0.50843
C          2.65728       -0.76785        0.15601
C          3.80916       -0.91736       -0.15414
H          0.75341        2.70291       -0.64722
H          1.07641        2.21462        1.02412
H          2.27694        1.89665       -0.23582
H          0.68759        0.31935       -1.36530
H         -1.11183        0.76584        1.07192
H         -1.41247        1.41291       -0.54502
H         -3.14555       -1.77748       -0.50905
H          1.17627       -0.34440        1.58054
H          0.70740       -1.50734        0.34907
H          4.82746       -1.06072       -0.41843
