19
../xyz/dsC7O2H10nsd_3286.xyz
C         -3.12565        0.00000        0.20472
C         -1.63540       -0.00000        0.45700
C         -0.70038        0.75293       -0.45657
O          0.43623        1.33454        0.12786
C          1.62778        0.75181       -0.33051
C          2.44830       -0.00000        0.68461
C          1.62778       -0.75180       -0.33051
O          0.43623       -1.33453        0.12786
C         -0.70037       -0.75293       -0.45657
H         -3.34840       -0.00001       -0.86767
H         -3.59958       -0.88637        0.63951
H         -3.59957        0.88639        0.63949
H         -1.32023       -0.00001        1.49647
H         -1.10606        1.30112       -1.30574
H          2.12398        1.30113       -1.12799
H          3.52767        0.00000        0.57979
H          2.07231       -0.00000        1.70112
H          2.12397       -1.30112       -1.12800
H         -1.10605       -1.30112       -1.30574
