19
../xyz/dsC7O2H10nsd_2880.xyz
O          2.39579       -0.07046       -0.29572
C          1.03493       -0.26345       -0.66422
C          0.35186        1.08522       -0.62799
C         -0.24314        1.24743        0.77840
C          0.07277       -0.03080        1.54313
C          0.22601       -1.05045        0.39318
C         -1.15424       -1.36471       -0.19130
O         -1.85989       -0.17805       -0.55347
C         -1.13729        1.01617       -0.40542
H          2.83722       -0.92498       -0.33991
H          0.97059       -0.74294       -1.65322
H          0.79214        1.91004       -1.17588
H         -0.24685        2.20323        1.28977
H          1.00985        0.07433        2.09680
H         -0.71660       -0.31866        2.24593
H          0.72007       -1.98054        0.69037
H         -1.05857       -1.99960       -1.08513
H         -1.76303       -1.91074        0.54130
H         -1.73739        1.84157       -0.77108
