19
../xyz/dsC7O2H10nsd_2171.xyz
O         -2.17713       -0.99408        0.10345
C         -1.04043       -0.19370        0.05959
C         -1.18042        1.25338       -0.46260
C          0.34383        1.12126       -0.68160
C          0.11677       -0.38024       -1.01389
C          1.38280       -1.10473       -0.56966
O          1.97915       -0.21323        0.38733
C          0.97501        0.75712        0.69191
C         -0.23438        0.04031        1.35530
H         -1.98004       -1.77935        0.62483
H         -1.72532        1.29989       -1.40831
H         -1.55836        2.01121        0.22978
H          0.91213        1.78376       -1.33117
H         -0.25764       -0.60885       -2.01124
H          1.18086       -2.08297       -0.10887
H          2.08950       -1.26189       -1.39294
H          1.44307        1.55408        1.26911
H          0.09195       -0.87411        1.86078
H         -0.79138        0.65637        2.06737
