19
../xyz/dsC7O2H10nsd_0154.xyz
C          1.88764        0.65674        0.40828
C          1.80563       -0.88306        0.23012
O          0.72567       -1.30118       -0.59117
C         -0.57011       -1.08013       -0.11272
C         -0.93081        0.01922        0.93610
O         -2.30220       -0.01856        0.40013
C         -1.42783        0.01837       -0.79223
C         -0.57913        1.12514       -0.10202
C          0.88397        1.40968       -0.48042
H          1.70156        0.92658        1.45430
H          2.90498        0.99405        0.18323
H          2.69593       -1.25532       -0.28382
H          1.75927       -1.38520        1.20720
H         -1.10081       -2.02376        0.04637
H         -0.82071        0.01357        2.02130
H         -1.90655        0.01849       -1.77193
H         -1.16924        2.02993        0.06088
H          1.05887        1.16058       -1.53210
H          1.07271        2.48319       -0.37969
