19
../xyz/dsC7O2H10nsd_1124.xyz
C          2.77997        0.40664       -0.12231
C          1.48111       -0.36484        0.02176
O          1.42871       -1.43500        0.58871
C          0.23972        0.24888       -0.59964
C         -0.26924        1.68267       -0.18603
C         -1.63404        1.06840        0.15135
C         -1.45343        0.02785        1.23361
C         -1.11660       -0.32384       -0.18701
O         -1.76137       -1.32891       -0.87921
H          2.71169        1.36430        0.40613
H          3.60760       -0.17574        0.28462
H          2.97112        0.64188       -1.17544
H          0.35578        0.21244       -1.68950
H          0.24928        2.15317        0.65604
H         -0.28429        2.38112       -1.02448
H         -2.59538        1.51713       -0.06298
H         -0.68797        0.13747        1.99821
H         -2.37691       -0.42637        1.57785
H         -1.45462       -2.16857       -0.51690
