19
../xyz/dsC7O2H10nsd_1336.xyz
C         -1.59336        1.66579        0.57884
C         -1.16118        0.18507        0.51069
C         -1.95677       -0.51043       -0.59075
O         -2.77997       -1.36544       -0.40012
C          0.31422        0.01588        0.25993
C          1.15799       -0.78426        0.90848
C          2.53948       -0.66029        0.33800
O          2.41853        0.27698       -0.73007
C          1.08250        0.75476       -0.81446
H         -1.44869        2.17255       -0.38122
H         -2.65132        1.74323        0.84452
H         -1.00768        2.19906        1.33265
H         -1.42819       -0.31867        1.44427
H         -1.72824       -0.15097       -1.62129
H          0.91381       -1.43860        1.73625
H          3.26983       -0.29606        1.07869
H          2.92443       -1.61673       -0.04947
H          1.06306        1.84587       -0.66111
H          0.68722        0.56888       -1.82613
