19
../xyz/dsC7O2H10nsd_2265.xyz
O          2.41619       -0.15709        0.66644
C          1.12151       -0.06999        0.13015
C          0.77744        1.27907       -0.59635
C         -0.77753        1.27915       -0.59617
C         -1.12150       -0.07000        0.13016
O         -2.41617       -0.15723        0.66646
C          0.00002       -0.11543        1.18589
C         -0.66714       -1.18887       -0.80382
C          0.66719       -1.18904       -0.80361
H          3.04857       -0.02646       -0.04782
H          1.18481        2.11142       -0.01495
H          1.20792        1.32391       -1.60111
H         -1.18474        2.11144       -0.01457
H         -1.20821        1.32413       -1.60084
H         -3.04857       -0.02657       -0.04778
H          0.00003        0.74964        1.85556
H          0.00003       -1.04293        1.76039
H         -1.34004       -1.77954       -1.41502
H          1.34013       -1.77984       -1.41464
