19
../xyz/dsC7O2H10nsd_2052.xyz
O          0.97742        1.79909       -0.45148
C          1.06934        0.51434        0.05811
C          2.31797       -0.01713        0.69977
C          1.78738       -0.67698       -0.55597
C          0.61228       -1.59024       -0.19009
C         -0.15208       -0.35693        0.41419
C         -1.39235        0.01068       -0.35244
C         -2.51547        0.72358        0.26543
O         -2.59264       -0.68048        0.01003
H          1.03496        2.42257        0.28097
H          3.19137        0.60813        0.54216
H          2.29363       -0.53761        1.65551
H          2.38365       -0.73202       -1.45798
H          0.09179       -2.00725       -1.05536
H          0.83885       -2.40118        0.50865
H         -0.39470       -0.42390        1.48104
H         -1.25463        0.12657       -1.42891
H         -2.46102        1.00283        1.31748
H         -3.16451        1.34900       -0.34605
