19
../xyz/dsC7O2H10nsd_5733.xyz
O          2.89194       -0.99543       -0.00100
C          2.16880        0.11864        0.50051
C          1.05971        0.44740       -0.50199
C         -0.00527       -0.67904       -0.61003
C         -1.28100       -0.09341        0.00346
C         -2.26735       -0.86230        0.78004
O         -2.54578       -0.47334       -0.56502
C         -1.01044        1.35162        0.22092
C          0.25452        1.65415       -0.06897
H          3.55605       -1.24244        0.64895
H          1.71834       -0.10215        1.48184
H          2.82465        0.99497        0.62779
H          1.55208        0.62332       -1.46656
H         -0.20873       -0.92917       -1.65474
H          0.32739       -1.59523       -0.11732
H         -2.10473       -1.92880        0.93762
H         -2.86780       -0.37042        1.54595
H         -1.77664        2.03633        0.56498
H          0.69632        2.64143        0.01599
