19
../xyz/dsC7O2H10nsd_1837.xyz
C          0.40795        2.21156       -0.11399
C          0.45888        0.71512       -0.02112
C          1.37741       -0.09662       -0.96779
C          1.20952       -1.50067       -0.30042
C          0.24389       -1.07505        0.82406
O          0.83888        0.17416        1.29550
C         -0.76733       -0.20591        0.07959
C         -2.18077        0.05842        0.27279
O         -1.67254       -0.57252       -0.93032
H         -0.23957        2.62961        0.66153
H          1.40846        2.63991        0.00344
H          0.02272        2.51342       -1.09333
H          1.02765       -0.06860       -2.00307
H          2.40458        0.27307       -0.92908
H          0.76801       -2.24557       -0.96724
H          2.14433       -1.89301        0.10443
H         -0.01441       -1.77824        1.61455
H         -2.77471       -0.58822        0.91642
H         -2.57498        1.06343        0.13232
