19
../xyz/dsC7O2H10nsd_2315.xyz
O          1.04089        1.47694        0.78775
C          0.52272        0.61568       -0.21403
C          1.64719       -0.30880       -0.79250
C          1.31626       -1.33335        0.36129
C         -0.05699       -0.66121        0.42926
C         -1.28303       -0.18217        1.21596
C         -1.71196        0.06845       -0.27197
C         -0.77468        1.15938       -0.87235
O         -0.95030       -1.12295       -0.63258
H          1.59894        2.13189        0.35606
H          1.40594       -0.71093       -1.77621
H          2.65321        0.11758       -0.79876
H          1.32752       -2.39973        0.13057
H          1.91710       -1.13322        1.24957
H         -1.87940       -0.98311        1.65460
H         -1.15499        0.66217        1.89507
H         -2.75724        0.04278       -0.58067
H         -0.80520        1.11363       -1.96351
H         -0.98773        2.17916       -0.54199
