19
../xyz/dsC7O2H10nsd_4431.xyz
O         -1.76460        1.48530        0.45765
C         -1.40571        0.13104        0.56877
C         -1.89126       -0.86278       -0.50600
O         -0.54106       -1.30361       -0.73952
C          0.01134       -0.20433        0.04643
C          1.09192       -0.69297        1.03341
C          2.38449       -0.19085        0.44162
C          2.17309        0.64265       -0.57524
C          0.70535        0.85229       -0.84696
H         -2.61211        1.61761        0.89276
H         -1.56230       -0.24294        1.58912
H         -2.54620       -1.68344       -0.19137
H         -2.32542       -0.35649       -1.37918
H          0.92232       -0.28158        2.03877
H          1.04110       -1.78396        1.12300
H          3.35527       -0.47504        0.83178
H          2.94697        1.14392       -1.14603
H          0.38100        1.86554       -0.58119
H          0.42935        0.69256       -1.89505
