19
../xyz/dsC7O2H10nsd_5168.xyz
C          2.49432       -1.03547       -0.12545
C          1.14967       -0.39884        0.01032
O         -0.00401       -1.24691        0.33306
C         -0.55678        0.10922        0.23397
C         -2.03509        0.23207        0.43260
O         -2.73515       -0.55998       -0.50964
C          0.67017        0.79724        0.90724
C          0.82227        1.80611       -0.25183
C          0.35073        0.52324       -0.96895
H          2.78121       -1.53044        0.80732
H          2.48550       -1.78243       -0.92518
H          3.25007       -0.28075       -0.36467
H         -2.28356       -0.05328        1.46759
H         -2.35126        1.27053        0.28636
H         -2.30574       -1.42401       -0.50771
H          0.84400        0.91901        1.97698
H          0.13101        2.65295       -0.25817
H          1.83777        2.14556       -0.47324
H          0.15254        0.33642       -2.02416
