19
../xyz/dsC7O2H10nsd_5371.xyz
C          2.79583        0.14593        0.61251
C          1.66037       -0.19163       -0.35638
C          1.02550       -1.59143       -0.19626
C         -0.45701       -1.32793       -0.12009
C         -0.76941       -0.02481       -0.13054
C         -2.12415        0.61164       -0.04109
O         -3.16174       -0.29673        0.28765
C          0.47479        0.77972       -0.21235
O          0.55207        1.98815       -0.16303
H          3.08026        1.19544        0.50003
H          2.48349       -0.00816        1.65132
H          3.67516       -0.47832        0.42809
H          2.02920       -0.07054       -1.38306
H          1.26880       -2.26871       -1.02357
H          1.37729       -2.09307        0.71533
H         -1.18773       -2.12725       -0.05648
H         -2.07512        1.46046        0.65757
H         -2.39446        1.04026       -1.01364
H         -3.01516       -0.59047        1.19269
