19
../xyz/dsC7O2H10nsd_0061.xyz
C         -2.96055       -1.34504       -0.04549
C         -1.96079       -0.24531       -0.03061
C         -2.02778        1.08886       -0.28395
C         -0.70478        1.60918       -0.09380
C          0.07878        0.55749        0.26476
C          1.52565        0.40710        0.57744
C          2.30093       -0.37592       -0.49899
O          3.67991       -0.49144       -0.19521
O         -0.67939       -0.58294        0.30472
H         -3.05482       -1.81920        0.93838
H         -3.93905       -0.95131       -0.32929
H         -2.68720       -2.12975       -0.76044
H         -2.91240        1.63734       -0.56848
H         -0.38091        2.63241       -0.20564
H          1.97263        1.39976        0.68439
H          1.64730       -0.10737        1.54139
H          1.83181       -1.35942       -0.64803
H          2.24508        0.16008       -1.45165
H          3.76472       -1.04568        0.58715
