19
../xyz/dsC7O2H10nsd_4568.xyz
C          0.26256        2.20995       -0.12403
C          0.45624        0.76049       -0.51740
O          1.77348        0.32837       -0.18504
C          1.79705       -1.08962       -0.37490
C          0.35215       -1.59121       -0.11428
C         -0.41075       -0.28478        0.24406
O         -0.34801       -0.03868        1.64620
C         -1.80863       -0.28545       -0.16387
C         -2.94667       -0.27818       -0.54868
H          0.98824        2.84118       -0.64304
H         -0.74485        2.53421       -0.39900
H          0.38426        2.34328        0.95289
H          0.27698        0.63354       -1.59805
H          2.11634       -1.32482       -1.39956
H          2.53627       -1.50316        0.31585
H         -0.07484       -2.05949       -1.00320
H          0.27736       -2.29474        0.71626
H          0.58266        0.13927        1.83687
H         -3.95778       -0.27401       -0.87373
