19
../xyz/dsC7O2H10nsd_0608.xyz
C          2.27134       -0.00417       -0.32847
C          1.26048        1.12339       -0.58839
C          0.20726        0.87911        0.51691
C         -1.18284        1.38523        0.25323
C         -2.16594        0.55563       -0.08818
C         -1.92157       -0.91639       -0.28154
O         -0.54808       -1.23494       -0.40540
C          0.25250       -0.65215        0.61511
O          1.57210       -1.02819        0.39913
H          2.67372       -0.43164       -1.25255
H          3.11418        0.33309        0.28779
H          1.71611        2.11484       -0.54049
H          0.79152        1.00507       -1.56796
H          0.57971        1.29410        1.46287
H         -1.36742        2.44968        0.37103
H         -3.18183        0.91100       -0.23799
H         -2.38408       -1.48708        0.54578
H         -2.39643       -1.26670       -1.20505
H         -0.06497       -1.04119        1.59468
