19
../xyz/dsC7O2H10nsd_2808.xyz
C         -2.66540        0.93516       -0.00002
C         -1.15833        0.71771       -0.00003
C         -0.65082       -0.38072        0.97348
O         -1.12937       -1.37635        0.00002
C         -0.65082       -0.38078       -0.97346
C          0.87494       -0.45887       -0.76805
C          1.60850        0.61350       -0.00001
O          3.00499        0.60837        0.00001
C          0.87492       -0.45882        0.76809
H         -2.97318        1.50548        0.88318
H         -2.97315        1.50577       -0.88304
H         -3.19691       -0.01826       -0.00017
H         -0.64272        1.67984       -0.00006
H         -1.04879       -0.52140        1.97860
H         -1.04875       -0.52152       -1.97860
H          1.44722       -1.17418       -1.34940
H          1.27364        1.64335       -0.00004
H          3.31258       -0.30431       -0.00023
H          1.44721       -1.17409        1.34950
