19
../xyz/dsC7O2H10nsd_4389.xyz
C          2.63099       -0.10933        0.63566
C          1.48613       -0.26443       -0.36749
O          0.91205       -1.56227       -0.24172
C         -0.50602       -1.47480       -0.12529
C         -0.79998        0.00006       -0.03675
C         -2.15579        0.50582        0.15178
O         -3.12760       -0.21408        0.25580
C          0.33725        0.70197       -0.17948
C          0.55365        2.17909       -0.19835
H          3.15408        0.84169        0.49383
H          2.25363       -0.15973        1.66134
H          3.35047       -0.91956        0.49255
H          1.89831       -0.14101       -1.38660
H         -0.99715       -1.93434       -0.99598
H         -0.84151       -2.02581        0.76286
H         -2.26113        1.61079        0.19767
H          1.06599        2.47790       -1.12137
H         -0.37740        2.74355       -0.12802
H          1.20179        2.48711        0.63063
