19
../xyz/dsC7O2H10nsd_2221.xyz
C         -2.32950       -0.35952       -0.00004
C         -0.83447       -0.21465       -0.00006
O         -0.15349       -1.45406       -0.00010
C          1.19607       -0.95633       -0.00001
C          1.20282       -0.06074        1.26301
C         -0.09900        0.72072        1.02186
O          0.10347        1.72472        0.00008
C         -0.09891        0.72085       -1.02183
C          1.20293       -0.06060       -1.26293
H         -2.80269        0.62640       -0.00128
H         -2.66481       -0.90763       -0.88587
H         -2.66508       -0.90548        0.88701
H          1.89399       -1.79293       -0.00002
H          1.13559       -0.68387        2.15987
H          2.06505        0.60466        1.34369
H         -0.60133        1.11690        1.90655
H         -0.60113        1.11713       -1.90652
H          1.13579       -0.68364       -2.15986
H          2.06517        0.60481       -1.34345
