19
../xyz/dsC7O2H10nsd_1157.xyz
C          3.05066       -0.32968       -0.54205
C          1.75519        0.13407        0.07762
O          1.64324        0.92935        0.97223
O          0.69890       -0.47351       -0.52735
C         -0.56714       -0.13466       -0.02569
C         -1.17430       -0.87166        1.12231
C         -1.85338       -0.90980       -0.23340
C         -2.60892        0.40729       -0.46500
C         -1.26476        1.19634       -0.28824
H          3.88597        0.17263       -0.05595
H          3.15104       -1.41340       -0.43302
H          3.05371       -0.11036       -1.61347
H         -0.65436       -1.78600        1.38917
H         -1.61850       -0.33840        1.95996
H         -2.02122       -1.84342       -0.75540
H         -3.01915        0.50303       -1.47216
H         -3.39819        0.62831        0.26008
H         -0.93880        1.65378       -1.22504
H         -1.20180        1.93567        0.51351
