19
../xyz/dsC7O2H10nsd_1699.xyz
C          0.57557       -0.95508        1.46642
C          0.64831       -0.33010        0.07890
C          2.07008       -0.28056       -0.51573
O          2.19424        1.11910       -0.19525
C          0.78036        1.21866        0.08033
O         -0.25499       -0.89267       -0.85681
C         -1.60889       -1.03006       -0.46277
C         -2.27319        0.22174       -0.08813
C         -2.82551        1.23956        0.23478
H          0.68041       -2.04365        1.40802
H          1.39068       -0.56345        2.08134
H         -0.36391       -0.71610        1.97391
H          2.84063       -0.89074       -0.03135
H          2.07262       -0.46400       -1.59767
H          0.57781        1.74609        1.01836
H          0.22995        1.69139       -0.74090
H         -2.11312       -1.46610       -1.33151
H         -1.71299       -1.75002        0.36183
H         -3.31650        2.14005        0.51159
