19
../xyz/dsC7O2H10nsd_1080.xyz
C          2.49555        0.03693        0.68706
C          1.36460       -0.54358       -0.13570
O          1.44523       -1.61102       -0.69993
C          0.07917        0.25937       -0.22514
C          0.17467        1.63506       -0.76493
O          0.00424        1.40739        0.63069
C         -1.17403       -0.54780       -0.38300
C         -1.97064       -0.93176        0.84072
C         -2.52274        0.07189       -0.14048
H          3.38384       -0.58309        0.56295
H          2.71368        1.07231        0.41059
H          2.20090        0.05800        1.74201
H          1.13718        2.05089       -1.05818
H         -0.69181        2.03840       -1.28506
H         -1.09106       -1.29753       -1.16104
H         -2.40227       -1.92527        0.87564
H         -1.63569       -0.54758        1.79788
H         -3.34150       -0.22390       -0.78656
H         -2.54851        1.10617        0.18448
