19
../xyz/dsC7O2H10nsd_5114.xyz
C          2.53866        0.38976        0.40728
O          1.63138       -0.04323       -0.60270
C          0.39838       -0.40219       -0.10114
C          0.09665       -1.71220        0.57281
C         -0.61144       -1.32492       -0.71879
C         -1.72326       -0.24402       -0.55941
C         -1.88616        0.27690        0.86439
C         -0.70544        0.69903        0.06878
O         -0.40336        2.02812       -0.14344
H          2.73126       -0.41002        1.13434
H          3.47170        0.65140       -0.09685
H          2.15285        1.26889        0.93809
H          0.87226       -2.45831        0.42042
H         -0.41431       -1.79968        1.52577
H         -0.50835       -1.92682       -1.61212
H         -2.47960       -0.06140       -1.31162
H         -2.64310        1.05342        0.93632
H         -1.82773       -0.35464        1.74559
H          0.17657        2.06393       -0.91448
