19
../xyz/dsC7O2H10nsd_1896.xyz
C          2.38287       -1.20300       -0.57250
C          1.50478       -0.18340        0.07437
C          0.75752       -0.31916        1.36754
C          0.00764        0.07917        0.10157
C         -1.17467       -0.66512       -0.45945
C         -2.46308       -0.29462        0.25433
O         -3.46741        0.07952       -0.29256
C          0.39344        1.51841       -0.23020
O          1.80797        1.19931       -0.15991
H          2.45391       -1.03256       -1.65102
H          3.39412       -1.15509       -0.15305
H          1.99613       -2.21151       -0.39950
H          0.57460       -1.33747        1.69883
H          0.92415        0.40029        2.16515
H         -1.30751       -0.48008       -1.53029
H         -1.02325       -1.74506       -0.31868
H         -2.40988       -0.38747        1.36360
H          0.11645        1.82005       -1.24752
H          0.10587        2.30452        0.47830
