19
../xyz/dsC7O2H10nsd_4562.xyz
C         -2.64088       -1.23357        0.33445
C         -1.59542       -0.36067       -0.37483
C         -1.52423        1.05025        0.23130
O         -0.43087        1.78395       -0.28375
C          0.81826        1.24026        0.09788
C          0.88124       -0.25440       -0.09454
C          2.19121       -0.91510       -0.00957
O          3.23130       -0.33802        0.21948
C         -0.22391       -0.97369       -0.33291
H         -2.38870       -1.37074        1.39141
H         -3.63289       -0.77397        0.28051
H         -2.70522       -2.22397       -0.12681
H         -1.88960       -0.26411       -1.43091
H         -2.42380        1.62400       -0.00903
H         -1.45586        0.97099        1.33003
H          1.57987        1.72896       -0.51657
H          1.05142        1.48855        1.14760
H          2.16361       -2.01640       -0.17373
H         -0.13993       -2.04928       -0.48895
