19
../xyz/dsC7O2H10nsd_3909.xyz
O          2.90784       -0.16668        0.06198
C          1.60820       -0.43430       -0.36926
C          0.61555       -1.30003        0.48912
C         -0.53651       -0.31448        0.14393
C         -1.59461       -0.62723       -0.96004
C         -2.60275        0.26132       -0.18432
C         -1.68489        0.15810        1.06442
C          0.56667        0.67821       -0.22559
O          0.69713        1.86673       -0.10053
H          2.90430        0.72162        0.44012
H          1.63516       -0.82603       -1.39469
H          0.48566       -2.33793        0.17769
H          0.88318       -1.25929        1.54852
H         -1.35245       -0.35236       -1.98991
H         -1.87145       -1.68565       -0.93506
H         -2.63178        1.27989       -0.57834
H         -3.62529       -0.10954       -0.09125
H         -1.49698        1.07289        1.63138
H         -2.00012       -0.63349        1.75037
