19
../xyz/dsC7O2H10nsd_4149.xyz
O         -0.89486        1.95726        0.50171
C         -0.72046        0.85400       -0.35649
C         -1.95090        0.01141       -0.84269
C         -1.22792       -1.25572       -0.37537
C         -0.98483       -1.17240        1.10064
C         -0.05783       -0.41903        0.17866
C          1.40418       -0.66088        0.15676
C          2.36051        0.43434        0.37868
O          2.13195       -0.08424       -0.93482
H         -1.29848        1.64234        1.31762
H         -0.15269        1.23111       -1.20939
H         -2.89614        0.22421       -0.33121
H         -2.11171        0.07888       -1.92015
H         -1.17523       -2.19217       -0.91623
H         -1.69066       -0.65278        1.74791
H         -0.54509       -2.05117        1.56315
H          1.71902       -1.67409        0.41368
H          1.97603        1.43720        0.55728
H          3.34171        0.22193        0.80108
