19
../xyz/dsC7O2H10nsd_4420.xyz
O         -1.72440        1.72836        0.13007
C         -1.49951        0.38197        0.45663
C         -2.17051       -0.75092       -0.35981
C         -0.87057       -1.58103       -0.17386
C         -0.11734       -0.26782        0.16479
C          0.76450        0.36324       -0.95803
C          1.98232        0.12637       -0.04985
O          3.16376        0.13014       -0.23441
C          1.08608       -0.22771        1.14562
H         -1.70014        1.81265       -0.82911
H         -1.73666        0.29316        1.52244
H         -3.11288       -1.16247        0.00712
H         -2.30329       -0.44967       -1.40523
H         -0.93060       -2.24743        0.69152
H         -0.51199       -2.15506       -1.03133
H          0.78849       -0.11248       -1.94238
H          0.57680        1.43716       -1.08162
H          1.34118       -1.14510        1.68412
H          1.02437        0.59665        1.86626
