19
../xyz/dsC7O2H10nsd_2996.xyz
C          2.54855        0.11587        1.01099
C          1.14624       -0.36053        0.69574
C          0.90340       -0.98325       -0.64615
O         -0.39755       -1.58168       -0.70736
C         -1.01646       -0.28604       -0.54150
C         -1.98826       -0.19335        0.61384
O         -2.76418        0.71957        0.74152
C          0.35386        0.40234       -0.36706
C          0.64432        1.78367       -0.87491
H          2.53844        0.98473        1.67754
H          3.11785       -0.67917        1.50287
H          3.09647        0.39884        0.10662
H          0.61518       -0.79138        1.54162
H          1.66715       -1.35552       -1.32032
H         -1.51685        0.03456       -1.46369
H         -1.91616       -1.01965        1.35472
H          0.08342        2.52942       -0.29958
H          1.70487        2.03395       -0.79297
H          0.35356        1.88893       -1.92582
