19
../xyz/dsC7O2H10nsd_0715.xyz
O         -2.54999       -0.36673        0.10174
C         -1.38360       -0.12012       -0.08565
C         -0.85945        1.22551       -0.57609
C          0.39749        1.68397        0.20899
C          1.35536        0.51721        0.52593
C          1.71602       -0.28239       -0.73361
O          0.61731       -1.18254       -0.94694
C         -0.26079       -1.12996        0.18381
C          0.60008       -0.56385        1.32296
H         -0.59884        1.09083       -1.63315
H         -1.66431        1.96190       -0.52688
H          0.92127        2.45916       -0.36088
H          0.08627        2.14640        1.15324
H          2.24458        0.88531        1.04423
H          1.83810        0.34714       -1.62281
H          2.63924       -0.86112       -0.59562
H         -0.67936       -2.12277        0.35915
H          0.00930       -0.16337        2.15156
H          1.27449       -1.33154        1.71476
