19
../xyz/dsC7O2H10nsd_5495.xyz
C          2.61400       -0.24147        0.46357
O          1.51707       -0.74228       -0.27695
C          0.68984        0.26755       -0.74762
C         -0.72513       -0.06167       -1.18626
C         -1.33846       -1.31215       -0.65907
C         -1.44414       -1.29805        0.67124
C         -0.92196       -0.01282        1.26779
C         -0.45038        0.80568        0.05933
O         -0.59372        2.19173        0.08132
H          2.28691        0.35852        1.32438
H          3.18081       -1.10424        0.82104
H          3.27033        0.38312       -0.16144
H          1.19027        1.01925       -1.36221
H         -1.05538        0.36459       -2.12800
H         -1.63617       -2.13043       -1.30438
H         -1.82570       -2.10902        1.28050
H         -1.69668        0.53895        1.81941
H         -0.10783       -0.19452        1.97999
H         -1.53603        2.39573        0.08191
