19
../xyz/dsC7O2H10nsd_0341.xyz
C          1.95718        0.93384        0.28193
C          2.02985       -0.62924        0.29285
C          0.56710       -0.62152       -0.13383
O         -0.15326       -1.60606       -0.84615
C         -0.63375       -1.21540        0.45233
C         -1.88733       -0.36259        0.49400
O         -1.79703        0.81873       -0.28113
C         -0.63648        1.59002        0.00152
C          0.60725        0.85924       -0.50292
H          1.82760        1.35000        1.28471
H          2.78003        1.45451       -0.20943
H          2.67509       -1.01834       -0.50025
H          2.28856       -1.12351        1.23232
H         -0.55339       -1.98646        1.21896
H         -2.74717       -0.91658        0.10353
H         -2.09165       -0.11630        1.55163
H         -0.78827        2.55589       -0.48792
H         -0.55483        1.76832        1.08780
H          0.74330        1.00511       -1.57833
