19
../xyz/dsC7O2H10nsd_1221.xyz
C          1.29765        1.29616        0.87567
C          0.72204        0.09523        0.11680
C          0.24785       -1.01023        1.07754
O         -0.27714        0.47955       -0.83433
C         -1.50520        0.99726       -0.35019
C         -2.53466       -0.02197       -0.12968
C         -3.39654       -0.84382        0.03155
C          1.80806       -0.52302       -0.77377
O          2.94551       -0.69708       -0.42582
H          0.61072        1.65856        1.64594
H          2.22987        0.99701        1.36040
H          1.51492        2.11377        0.18286
H         -0.53957       -0.64286        1.74098
H         -0.14769       -1.86660        0.52505
H          1.09116       -1.34186        1.68937
H         -1.36322        1.58529        0.56588
H         -1.85673        1.69514       -1.11906
H         -4.15628       -1.57146        0.17820
H          1.43457       -0.82430       -1.77592
