19
../xyz/dsC7O2H10nsd_2990.xyz
O         -1.77286       -1.43649        0.14098
C         -0.74537       -0.71717       -0.48941
C          0.64288       -1.19984       -0.04710
C          1.72009       -0.42479       -0.85206
C          1.57825        0.70021        0.20874
C          1.12207       -0.41122        1.20622
C          0.38489        1.60521       -0.14806
C         -0.89375        0.78071       -0.17019
O         -1.98054        1.22026        0.13483
H         -2.47610       -0.78924        0.30490
H         -0.81578       -0.82326       -1.58958
H          0.67447       -2.29051       -0.03159
H          2.69475       -0.91558       -0.79471
H          1.50529       -0.17624       -1.89729
H          2.46280        1.29111        0.45524
H          1.97595       -0.89503        1.68556
H          0.37886       -0.15893        1.96896
H          0.23880        2.41486        0.57361
H          0.53373        2.07388       -1.13036
