19
../xyz/dsC7O2H10nsd_5267.xyz
O         -2.60939       -0.40837       -0.02036
C         -1.48622       -0.03792       -0.79743
C         -0.24416        0.07669        0.08208
C         -0.17902        1.40740        0.91822
C          0.83564        1.96914       -0.15406
C          1.05388        0.51454       -0.51522
C          1.94972       -0.46244       -0.44535
C          1.24765       -1.68991        0.12120
O          0.00614       -1.19952        0.67199
H         -2.33661       -1.19319        0.47075
H         -1.29086       -0.76620       -1.60062
H         -1.72603        0.92228       -1.26619
H         -1.11931        1.94630        1.05166
H          0.30769        1.24255        1.88044
H          0.32448        2.55209       -0.92569
H          1.70211        2.52952        0.20028
H          3.02199       -0.41247       -0.58699
H          1.04672       -2.47552       -0.62405
H          1.83080       -2.14718        0.93070
