19
../xyz/dsC7O2H10nsd_1513.xyz
C          2.02759        1.28264       -0.30374
C          1.30405        0.00000        0.03467
C          2.02777       -1.28242       -0.30413
O          0.66512       -0.00034        1.36281
C         -0.13712       -0.00006        0.21744
C         -1.32565        0.90839       -0.15193
C         -2.23743       -0.00021        0.71243
C         -1.32563       -0.90835       -0.15240
O         -1.56233        0.00031       -1.30100
H          2.19697        1.35224       -1.38343
H          1.45115        2.15347        0.01552
H          3.00330        1.31380        0.19313
H          3.00252       -1.31448        0.19456
H          1.45053       -2.15356        0.01284
H          2.19920       -1.35063       -1.38359
H         -1.37800        1.98117       -0.33383
H         -2.08416       -0.00049        1.79398
H         -3.28739       -0.00015        0.41719
H         -1.37796       -1.98104       -0.33485
