19
../xyz/dsC7O2H10nsd_5517.xyz
O          2.64817       -0.01393       -0.43181
C          1.69963       -0.94095        0.07192
C          0.30353       -0.61479       -0.44958
C         -0.97488       -1.22581        0.25145
C         -0.79471       -0.12925        1.35835
C         -0.35747        0.69787        0.09827
O          0.43647        1.84896        0.15702
C         -1.67390        0.69656       -0.69998
C         -2.07584       -0.57297       -0.59884
H          2.32287        0.86458       -0.19798
H          2.00733       -1.92748       -0.29365
H          1.73188       -0.98557        1.17053
H          0.30556       -0.68614       -1.54026
H         -1.05187       -2.28361        0.49482
H         -1.69657        0.19725        1.88082
H          0.01541       -0.32746        2.06280
H         -0.02279        2.52768        0.66280
H         -2.10203        1.54209       -1.21999
H         -2.94506       -1.06555       -1.01119
