19
../xyz/dsC7O2H10nsd_0372.xyz
C         -2.14956       -0.58120       -0.02305
O         -1.88565        0.83518        0.06829
C         -0.79022       -0.06012        0.01183
C          0.25281       -0.13310        1.12244
C          1.05126        1.16580        0.84278
C          1.04418        1.25148       -0.72381
C          0.23539       -0.00052       -1.11183
O          1.03325       -1.16318       -0.84959
C          1.07097       -1.31956        0.58859
H         -2.58652       -1.02597        0.86991
H         -2.58312       -0.91111       -0.96581
H         -0.11579       -0.25234        2.14104
H          0.54532        2.02656        1.28649
H          2.06131        1.11806        1.25846
H          0.55222        2.16287       -1.07508
H          2.04497        1.20853       -1.15857
H         -0.12990       -0.04584       -2.13755
H          0.62916       -2.28788        0.85767
H          2.11262       -1.30551        0.93218
