19
../xyz/dsC7O2H10nsd_4996.xyz
C          2.77117        0.15379        0.40656
O          1.90866       -0.59032       -0.44727
C          0.58351       -0.38816       -0.19717
C         -0.57042       -0.95806       -1.07104
C         -1.33347       -0.19268        0.07559
C         -2.81299       -0.04207        0.27067
C         -0.28431       -0.82838        1.05360
C         -0.26794        0.89851       -0.14214
O         -0.17241        2.08719       -0.21059
H          2.67337       -0.17077        1.45159
H          3.79056       -0.03941        0.06821
H          2.56105        1.22779        0.34343
H         -0.66752       -0.57623       -2.08924
H         -0.67177       -2.04521       -1.02680
H         -3.30347       -1.01299        0.39292
H         -3.02671        0.55930        1.16011
H         -3.26812        0.46151       -0.58823
H         -0.11654       -0.32525        2.00804
H         -0.37414       -1.91142        1.16646
