19
../xyz/dsC7O2H10nsd_0813.xyz
O         -3.16499       -0.43180        0.14857
C         -2.36320        0.46167       -0.00427
C         -0.89504        0.28814        0.01375
C         -0.14971        1.38041       -0.22084
C          1.34990        1.46783       -0.22868
C          2.06065        0.38076        0.58942
O          2.11284       -0.89942       -0.00260
C          0.90904       -1.42870       -0.53964
C         -0.36967       -1.11011        0.23984
H         -2.69756        1.50949       -0.17750
H         -0.67971        2.31270       -0.41712
H          1.72531        1.45950       -1.26241
H          1.64206        2.44452        0.17834
H          3.10718        0.66651        0.73490
H          1.59607        0.33483        1.58718
H          0.78030       -1.09425       -1.58124
H          1.06364       -2.51216       -0.56412
H         -1.15588       -1.80558       -0.07211
H         -0.21609       -1.30588        1.30881
