19
../xyz/dsC7O2H10nsd_1129.xyz
C         -2.44837       -1.15370       -0.13538
C         -1.75931        0.17224        0.09332
O         -2.33469        1.23494        0.04050
C         -0.26857        0.13540        0.43708
C          0.55919        1.28647       -0.18957
C          1.88802        0.62520       -0.51005
C          2.56218       -0.16278        0.60230
C          1.64661       -0.84971       -0.37674
O          0.31672       -1.09605        0.00601
H         -1.99692       -1.65895       -0.99438
H         -2.29334       -1.81681        0.72244
H         -3.51320       -0.98917       -0.30258
H         -0.21255        0.19551        1.53661
H          0.07969        1.64462       -1.10520
H          0.63491        2.13512        0.49393
H          2.49405        1.03563       -1.30872
H          3.62536       -0.35124        0.49909
H          2.23169       -0.02463        1.62669
H          2.01552       -1.59990       -1.06569
