19
../xyz/dsC7O2H10nsd_1784.xyz
C         -2.66448       -0.72901       -0.05277
C         -1.29072       -0.13343        0.05944
C         -0.24375       -0.56286        1.11854
C          0.67058       -0.08590       -0.04490
C          0.44722        1.44086       -0.07110
C         -1.11087        1.40387       -0.00393
O         -0.33853       -0.57634       -0.97676
C          2.03892       -0.66358       -0.23480
O          3.04997       -0.12342        0.13767
H         -2.62150       -1.82132       -0.03480
H         -3.29359       -0.39074        0.77710
H         -3.14007       -0.41709       -0.98837
H         -0.18898       -0.03886        2.07561
H         -0.21504       -1.64607        1.24541
H          0.92064        1.94744        0.77177
H          0.82505        1.87734       -0.99721
H         -1.52432        1.91324        0.87076
H         -1.58122        1.81404       -0.90041
H          2.04611       -1.65962       -0.73008
