19
../xyz/dsC7O2H10nsd_3433.xyz
C          1.94232        1.65115        0.03966
C          0.68130        0.85249        0.11776
C         -0.56024        1.27832        0.38181
C         -1.58709        0.16708        0.30841
O         -2.55816        0.37437       -0.71285
C         -0.73538       -1.08344        0.07811
C          0.29314       -1.45309        1.12621
C          0.69616       -0.63716       -0.08492
O          1.52831       -1.18109       -1.06507
H          2.65413        1.34770        0.81877
H          2.43967        1.48382       -0.92277
H          1.75236        2.72123        0.15154
H         -0.83932        2.29856        0.62164
H         -2.17263        0.08554        1.23196
H         -2.07383        0.59406       -1.51699
H         -1.14677       -1.87425       -0.53719
H          0.26624       -0.96830        2.09748
H          0.60246       -2.49429        1.13551
H          2.37524       -1.39252       -0.65882
