19
../xyz/dsC7O2H10nsd_1697.xyz
O         -0.03703       -1.22133        1.22361
C          0.17264       -0.38103        0.07452
C         -1.14237       -0.47456       -0.71917
C         -2.34940       -0.01506        0.07201
O         -3.13182        0.81863       -0.31175
C          1.41062       -0.82521       -0.75985
C          2.55268        0.16165       -0.41115
C          1.83185        1.29413        0.27893
C          0.54838        1.02156        0.50859
H          0.65423       -1.01501        1.86175
H         -1.08426        0.10901       -1.64079
H         -1.29754       -1.53143       -0.97819
H         -2.47064       -0.51179        1.05674
H          1.64991       -1.86766       -0.53802
H          1.17909       -0.76088       -1.82691
H          3.31060       -0.28099        0.24892
H          3.09321        0.49978       -1.30224
H          2.33173        2.21574        0.55836
H         -0.16190        1.67592        1.00224
