19
../xyz/dsC7O2H10nsd_5979.xyz
C          3.34226       -0.14734       -0.11853
O          2.00901        0.22226       -0.37743
C          1.11093       -0.23942        0.61173
C         -0.27140        0.19676        0.23849
C         -0.87843        1.60759        0.07141
C         -2.06829        0.67793       -0.25543
C         -1.14446       -0.38459       -0.92361
O         -1.65066       -1.50872       -0.13972
C         -1.61392       -0.38674        0.79083
H          3.46346       -1.24158       -0.08018
H          3.95541        0.24776       -0.93214
H          3.70494        0.26973        0.83470
H          1.13375       -1.34034        0.68130
H          1.38920        0.16040        1.60265
H         -0.96621        2.21157        0.97938
H         -0.48440        2.20890       -0.75128
H         -3.09333        0.91830       -0.53529
H         -0.89186       -0.54310       -1.97125
H         -1.93796       -0.54506        1.81998
