19
../xyz/dsC7O2H10nsd_3698.xyz
C         -2.75071       -0.90063       -0.50237
C         -1.90438        0.34097       -0.39312
O         -1.53350        0.75670        0.93566
C         -0.50912        0.32631        0.04728
C          0.66226        1.21774       -0.41896
C          1.59162        0.02319       -0.13749
O          2.61796       -0.37145       -0.97435
C          1.48828       -0.41011        1.29389
C          0.41246       -0.84023        0.30889
H         -3.78564       -0.68486       -0.21690
H         -2.75706       -1.27199       -1.53304
H         -2.37420       -1.68970        0.15314
H         -2.21174        1.16862       -1.03676
H          0.60742        1.45387       -1.48489
H          0.83720        2.13327        0.15493
H          3.42734        0.06586       -0.68779
H          2.17136       -1.20785        1.56819
H          1.25778        0.29303        2.09029
H          0.20938       -1.88570        0.11360
