19
../xyz/dsC7O2H10nsd_0910.xyz
O          3.54737        0.12266       -0.12973
C          2.44614        0.05726        0.35289
C          1.23204       -0.52973       -0.33016
C          0.07337        0.46634       -0.36378
C         -1.29198        0.10608       -1.05202
C         -1.92287        1.18825       -0.11904
C         -0.88288        0.59793        0.85892
O         -1.34119       -0.74915        1.06866
C         -1.68430       -1.15716       -0.27879
H          2.24923        0.45033        1.37815
H          1.52154       -0.84915       -1.33617
H          0.92538       -1.41160        0.24699
H          0.40792        1.44888       -0.70782
H         -1.41895        0.10350       -2.13379
H         -1.69918        2.20810       -0.43434
H         -2.97486        1.08162        0.15430
H         -0.60964        1.04299        1.81435
H         -1.11414       -2.04985       -0.55864
H         -2.75390       -1.38671       -0.34256
