19
../xyz/dsC7O2H10nsd_1222.xyz
C          1.33895       -1.25711       -1.09598
C          1.01324       -0.30390        0.05901
O          1.12016       -1.09399        1.24840
C         -0.35946        0.37109       -0.06010
C         -1.53706       -0.62349       -0.09607
C         -2.82987        0.04628       -0.03261
C         -3.88312        0.62269        0.02278
C          2.13116        0.74569        0.11456
O          2.02056        1.90551       -0.18235
H          0.67667       -2.12567       -1.06221
H          1.22483       -0.75390       -2.05971
H          2.36666       -1.62229       -1.00868
H          0.88130       -0.54014        2.00082
H         -0.48925        1.04986        0.79151
H         -0.37060        1.00901       -0.94798
H         -1.49079       -1.22971       -1.00867
H         -1.43891       -1.32530        0.74073
H         -4.81965        1.12049        0.06987
H          3.09086        0.31791        0.48633
