19
../xyz/dsC7O2H10nsd_5587.xyz
C          3.07000        0.77369       -0.32054
C          2.29661       -0.48584        0.08479
C          0.82477       -0.41355       -0.26655
C         -0.18102       -1.21442        0.49823
C         -1.50680       -1.46684       -0.20169
O         -2.03500       -0.17810       -0.55508
C         -1.36360        0.83619        0.07938
O         -1.76981        1.96169        0.08092
C         -0.12367        0.28274        0.70240
H          4.12917        0.68505       -0.06132
H          3.00350        0.94610       -1.39997
H          2.67103        1.66106        0.18097
H          2.73511       -1.36329       -0.40786
H          2.40255       -0.65692        1.16362
H          0.61846       -0.25868       -1.32469
H          0.14639       -1.90782        1.26370
H         -1.41022       -2.05347       -1.12081
H         -2.22338       -1.96623        0.46045
H          0.26810        0.77364        1.58307
