19
../xyz/dsC7O2H10nsd_0897.xyz
O          3.25754        0.52030        0.00379
C          2.31516       -0.12345        0.38638
C          1.27521       -0.75578       -0.51620
C         -0.13574       -0.29709       -0.18887
C         -0.85154       -0.56050        1.18376
C         -2.08556       -0.18655        0.32856
C         -1.40748       -0.93170       -0.84552
O         -1.86810        1.19829        0.01576
C         -0.47734        1.19377       -0.36867
H          2.14685       -0.29919        1.47433
H          1.53653       -0.53011       -1.55541
H          1.33703       -1.84462       -0.37741
H         -0.82490       -1.61220        1.47611
H         -0.61792        0.08961        2.03038
H         -3.11736       -0.33743        0.63962
H         -1.43066       -2.01867       -0.74628
H         -1.67590       -0.62230       -1.85860
H         -0.36535        1.53794       -1.40395
H          0.09981        1.85608        0.28816
