19
../xyz/dsC7O2H10nsd_3512.xyz
O         -1.27709        1.90234        0.57537
C         -0.50296        1.10206       -0.32045
C         -1.44568        0.12430       -0.97220
C         -1.48850       -1.17291       -0.67058
C         -0.61764       -1.81892        0.37182
C          0.08720       -0.78140        1.25671
C          0.65338        0.39335        0.42800
C          1.72684       -0.07283       -0.53621
O          2.90503        0.13844       -0.39126
H         -0.73793        2.65646        0.83832
H         -0.07524        1.74763       -1.10497
H         -2.12481        0.54063       -1.71059
H         -2.18663       -1.82083       -1.19589
H         -1.22731       -2.48428        0.99522
H          0.11341       -2.47789       -0.11966
H         -0.63646       -0.35387        1.95838
H          0.88216       -1.24857        1.84552
H          1.13587        1.11258        1.09880
H          1.35745       -0.64003       -1.42053
