19
../xyz/dsC7O2H10nsd_3580.xyz
C         -2.70393       -0.23777       -0.81768
C         -1.77906       -0.08788        0.38530
C         -0.75210       -1.21744        0.72471
C          0.40599       -0.18988        0.78763
C          1.62606       -0.41269       -0.09609
C          2.64520        0.70505       -0.07392
O          1.72950       -1.39274       -0.79639
C         -0.59144        0.87395        0.24260
O         -0.45100        1.97604       -0.20157
H         -3.46601       -1.00025       -0.62954
H         -3.21047        0.70718       -1.03478
H         -2.14286       -0.53336       -1.70979
H         -2.35745        0.20214        1.27229
H         -0.94399       -1.77623        1.64082
H         -0.59796       -1.91664       -0.09973
H          0.72814        0.08627        1.79803
H          3.43412        0.51053       -0.80127
H          2.14268        1.65406       -0.29491
H          3.08134        0.79982        0.92722
