19
../xyz/dsC7O2H10nsd_2588.xyz
C          2.63816       -0.09842        0.05116
C          1.18285        0.26863        0.10603
C          0.68766        1.42646       -0.33377
C         -0.77089        1.78163       -0.32172
O         -1.57106        0.97384        0.52760
C         -1.24114       -0.38260        0.56936
C         -1.28832       -1.28478       -0.69010
O          0.00863       -1.83106       -0.36379
C          0.24731       -0.78457        0.62908
H          3.03470       -0.29521        1.05544
H          2.77392       -1.01911       -0.52851
H          3.23938        0.69194       -0.40609
H          1.34766        2.17829       -0.76262
H         -0.91013        2.80932        0.03407
H         -1.16355        1.75669       -1.35386
H         -1.82366       -0.80327        1.39111
H         -2.06350       -2.05710       -0.72364
H         -1.28126       -0.73636       -1.64141
H          0.61209       -1.22552        1.56473
