19
../xyz/dsC7O2H10nsd_5721.xyz
O         -1.04998        1.98209        0.68528
C         -1.89889        1.06656        0.00598
C         -1.14193       -0.10567       -0.56982
C         -1.63497       -1.53755       -0.46748
C         -0.48008       -1.08435        0.36413
O          0.77906       -1.60308        0.04331
C          1.85128       -0.82211        0.54103
C          2.03639        0.47200       -0.12944
C          2.22736        1.52707       -0.67569
H         -0.19160        1.97111        0.24605
H         -2.63269        0.71873        0.74389
H         -2.46555        1.57428       -0.79115
H         -0.56837        0.10893       -1.46688
H         -2.57604       -1.73456        0.03478
H         -1.41436       -2.19655       -1.29940
H         -0.63943       -0.94063        1.43354
H          1.73458       -0.65183        1.62273
H          2.75197       -1.42890        0.40091
H          2.41393        2.45160       -1.16538
