19
../xyz/dsC7O2H10nsd_4999.xyz
O         -2.79915        0.07637       -0.60219
C         -2.02323       -0.49654        0.44257
C         -0.58911       -0.09494        0.22747
C          0.57241       -0.65859        1.11956
C          1.42353       -0.10460       -0.08024
O          2.76657       -0.39348       -0.28978
C          0.25108       -0.59158       -1.00431
C          1.09676        1.39056        0.01662
C         -0.22151        1.40140        0.21552
H         -3.72141       -0.15091       -0.45164
H         -2.36077       -0.14019        1.43017
H         -2.10600       -1.59534        0.44584
H          0.72520       -0.20450        2.10107
H          0.57220       -1.75373        1.18355
H          2.86389       -1.34785       -0.36412
H          0.10590       -0.07715       -1.95514
H          0.21866       -1.68090       -1.13133
H          1.81735        2.19044       -0.07375
H         -0.91393        2.22278        0.32797
