19
../xyz/dsC7O2H10nsd_1528.xyz
C          2.42072       -0.63623        0.50570
C          1.24751        0.20516        0.01377
C          1.69755        1.51275       -0.63446
C          0.07049        0.42234        1.04588
C         -0.86672       -0.30442        0.08506
O         -0.33293       -1.61908       -0.15929
C          0.23892       -0.55158       -0.88804
C         -2.28888       -0.07749       -0.22113
O         -2.94516        0.81515        0.25840
H          2.96759       -0.11069        1.29633
H          2.07022       -1.59022        0.90758
H          3.12677       -0.84316       -0.30652
H          2.37102        1.32136       -1.47765
H          0.84612        2.09132       -1.00900
H          2.23439        2.13663        0.08769
H          0.18111       -0.05676        2.02083
H         -0.19600        1.47242        1.17623
H          0.21037       -0.61249       -1.97227
H         -2.70442       -0.80016       -0.95677
