19
../xyz/dsC7O2H10nsd_3279.xyz
C         -2.91236       -0.59072        0.26985
C         -1.50466       -0.06091        0.43827
C         -0.88190        0.72065       -0.68964
O          0.14146        1.64962       -0.40207
C          1.32751        0.97181       -0.07204
C          1.42738        0.25597        1.26423
C          1.07084       -0.50378        0.00153
O          1.98121       -1.40421       -0.54944
C         -0.38876       -0.67360       -0.39146
H         -3.07038       -1.49826        0.86274
H         -3.65371        0.15162        0.58468
H         -3.11787       -0.84218       -0.77629
H         -1.25867        0.26225        1.44475
H         -1.47140        0.99547       -1.55893
H          2.21755        1.40307       -0.51674
H          2.43962        0.10353        1.62587
H          0.68937        0.43798        2.03594
H          2.01760       -2.17706        0.02482
H         -0.60178       -1.51623       -1.03909
