19
../xyz/dsC7O2H10nsd_5575.xyz
C          2.70873        0.23118       -0.27665
O          1.60959       -0.65502       -0.29655
C          0.65502       -0.38397        0.68369
C         -0.67588       -1.15040        0.53351
C         -1.25809       -1.01834       -0.89811
C         -1.66945        0.43693       -0.57969
O         -0.54173        1.34219       -0.64847
C         -0.11757        0.97001        0.67577
C         -1.42952        0.17807        0.93792
H          3.22625        0.21587        0.69563
H          3.40496       -0.10102       -1.05014
H          2.40132        1.26289       -0.49535
H          1.06368       -0.53493        1.69950
H         -0.77001       -2.10602        1.04743
H         -0.57710       -1.16718       -1.73813
H         -2.14321       -1.65182       -1.01583
H         -2.56250        0.86452       -1.03988
H          0.26569        1.82014        1.24381
H         -2.13138        0.31931        1.75436
