19
../xyz/dsC7O2H10nsd_2457.xyz
O          1.97085       -0.96317        0.14155
C          0.64989       -0.50640        0.11253
C         -0.44142       -1.56147        0.32591
O         -1.59872       -0.99882       -0.29478
C         -1.28415        0.38434       -0.52266
C         -1.02403        1.06859        0.85190
C          0.50124        0.85400        0.88523
C          0.91721        1.55094       -0.44164
C          0.15468        0.37399       -1.09094
H          2.07085       -1.64591       -0.53139
H         -0.18460       -2.50717       -0.17180
H         -0.62335       -1.77769        1.38790
H         -2.07880        0.80590       -1.13675
H         -1.27930        2.13219        0.86679
H         -1.58600        0.56532        1.64235
H          1.03470        1.01894        1.82092
H          0.56053        2.56996       -0.61606
H          1.98942        1.48297       -0.62819
H          0.27902        0.06739       -2.12996
