19
../xyz/dsC7O2H10nsd_3051.xyz
C          2.73439       -0.63925       -0.06363
C          1.42020       -0.08344       -0.58408
C          0.79505        1.27239        0.00333
C          0.37864        0.49575        1.26849
C          0.03173       -0.42114        0.04665
O         -0.96558       -1.39486        0.06292
C         -2.17393       -0.59488        0.03586
O         -1.85003        0.79723       -0.16358
C         -0.52871        0.77294       -0.67561
H          3.57300       -0.04855       -0.44755
H          2.80425       -0.64967        1.02600
H          2.87103       -1.66748       -0.41455
H          1.41097       -0.11296       -1.67936
H          1.25643        2.25597       -0.05738
H          1.16736        0.16793        1.94334
H         -0.47405        0.89847        1.81341
H         -2.79890       -0.96932       -0.78509
H         -2.70309       -0.67677        0.99174
H         -0.52631        0.76928       -1.77129
