19
../xyz/dsC7O2H10nsd_3418.xyz
C         -2.28896       -1.07326       -0.00000
C         -0.77056       -0.94593       -0.00000
C         -0.19889        0.04662        1.06968
C          1.32904       -0.19748        1.19680
O          1.85893       -0.74277        0.00000
C          1.32904       -0.19748       -1.19680
C         -0.19889        0.04663       -1.06968
C         -0.37364        1.12814        0.00000
O         -0.61057        2.30193        0.00000
H         -2.63570       -1.61731       -0.88475
H         -2.63571       -1.61721        0.88481
H         -2.77873       -0.09283       -0.00006
H         -0.28790       -1.92563       -0.00001
H         -0.67714        0.16197        2.04449
H          1.83531        0.74158        1.46965
H          1.53598       -0.93543        1.97845
H          1.83531        0.74158       -1.46965
H          1.53598       -0.93542       -1.97845
H         -0.67714        0.16197       -2.04450
