19
../xyz/dsC7O2H10nsd_2609.xyz
C          0.94857        1.87652        0.83213
C          0.52894        0.95229       -0.30124
C          1.22729       -0.41354       -0.46346
O          2.37463       -0.75346       -0.50694
C         -0.10455       -1.17555       -0.53115
C         -0.59365       -1.56216        0.88104
O         -1.13277       -0.24399        1.11494
C         -0.83103        0.18534       -0.23955
C         -2.03610        0.73311       -0.95622
H          0.42324        2.83519        0.78129
H          0.72307        1.41559        1.79682
H          2.02326        2.07369        0.78009
H          0.60214        1.46313       -1.27290
H         -0.29262       -1.85358       -1.36253
H         -1.38505       -2.32146        0.87758
H          0.17284       -1.84458        1.61106
H         -2.38268        1.64899       -0.46489
H         -1.79715        0.97416       -1.99687
H         -2.85873        0.01240       -0.94300
