19
../xyz/dsC7O2H10nsd_0467.xyz
C          2.77768        0.10469        0.12628
O          2.06472       -1.12966        0.03424
C          1.40347        0.06716       -0.39023
C          0.22410        0.50146        0.43228
C         -0.44577        1.83622        0.02330
O         -1.67871        1.17011       -0.32302
C         -1.13184       -0.09762        0.05034
C         -1.45315       -1.35133       -0.69381
C         -1.95108       -1.13937        0.73188
H          2.96123        0.46348        1.13859
H          3.61303        0.21598       -0.56344
H          1.26300        0.13340       -1.47062
H          0.46251        0.41916        1.49549
H         -0.58420        2.56178        0.83233
H          0.00185        2.34162       -0.84161
H         -2.18287       -1.27509       -1.49280
H         -0.65881       -2.07096       -0.86239
H         -3.00580       -0.92239        0.86363
H         -1.49847       -1.71789        1.53089
