19
../xyz/dsC7O2H10nsd_4117.xyz
C         -2.69627       -0.06175        0.17540
C         -1.19457        0.00011        0.40444
C         -0.56119        1.31357       -0.12164
C          0.95338        1.10979       -0.32899
O          1.06171        0.01856       -1.25414
C          0.76426       -1.09511       -0.43868
O         -0.63462       -1.17048       -0.21999
C          1.51506       -0.77880        0.85391
C          1.60563        0.54539        0.92809
H         -2.92467       -0.01239       -0.89338
H         -3.10297       -0.99672        0.57054
H         -3.19360        0.77392        0.67863
H         -0.99516       -0.05900        1.48361
H         -0.99558        1.58266       -1.09018
H         -0.77783        2.12362        0.58433
H          1.44533        1.98694       -0.75566
H          1.03882       -2.01285       -0.96034
H          1.79106       -1.51703        1.59432
H          1.98005        1.14703        1.74590
