19
../xyz/dsC7O2H10nsd_5296.xyz
C          2.75947        0.21183       -0.42088
C          1.71327       -0.32536        0.56491
C          0.29471        0.07623        0.23554
C         -0.13223        1.53934        0.20992
O         -1.53327        1.44244       -0.12833
C         -1.72563        0.05911       -0.24252
C         -0.92028       -0.71936        0.83497
O         -0.70531       -1.83227       -0.09377
C         -0.50714       -0.63523       -0.91573
H          3.75829       -0.15028       -0.16040
H          2.54419       -0.11568       -1.44349
H          2.79577        1.30616       -0.42233
H          1.74655       -1.42026        0.58278
H          1.95657        0.01460        1.58029
H         -0.01814        2.03568        1.18196
H          0.38729        2.13496       -0.54947
H         -2.74940       -0.20468       -0.49702
H         -1.15304       -0.95227        1.87451
H         -0.25244       -0.76897       -1.96732
