19
../xyz/dsC7O2H10nsd_1346.xyz
O         -1.79070        1.65665        0.12188
C         -1.14440        0.45230       -0.25182
C         -2.08198       -0.67321        0.16162
O         -1.98216       -1.80837       -0.22623
C          0.21571        0.28364        0.43631
C          1.30082        1.29138       -0.08951
C          2.12020        0.10601       -0.61222
C          2.43582       -0.83774        0.51310
C          1.06480       -0.87827       -0.09899
H         -1.17436        2.38308       -0.01396
H         -1.00359        0.38416       -1.34295
H         -2.86792       -0.35559        0.88187
H          0.06249        0.28930        1.52263
H          0.91805        1.92989       -0.89248
H          1.78935        1.92681        0.65662
H          2.67320        0.09153       -1.54320
H          3.08091       -1.67116        0.25434
H          2.57934       -0.46173        1.52431
H          0.65963       -1.76720       -0.56333
