19
../xyz/dsC7O2H10nsd_0665.xyz
O         -2.40842       -0.38845       -0.52142
C         -1.34592        0.02905       -0.14706
C         -0.62904        1.29678       -0.63910
C          0.72702        1.26913        0.09946
C          0.34547        0.60457        1.44569
C         -0.43527       -0.60962        0.93777
O          0.45859       -1.55311        0.34525
C          1.14325       -1.06168       -0.80593
C          1.73975        0.34031       -0.60132
H         -0.56402        1.30779       -1.73131
H         -1.22715        2.16706       -0.34318
H          1.15228        2.26778        0.22298
H          1.20914        0.31301        2.04846
H         -0.29801        1.25847        2.04617
H         -1.01259       -1.15931        1.68178
H          1.92512       -1.79513       -1.01977
H          0.46060       -1.05638       -1.67027
H          2.64441        0.27391        0.01366
H          2.03724        0.74408       -1.57631
