19
../xyz/dsC7O2H10nsd_4922.xyz
O         -1.44158        2.06453       -0.32928
C         -1.55288        0.98850        0.58188
C         -0.96271       -0.28032        0.00647
C         -1.40123       -1.63798        0.48845
C         -1.78171       -1.14783       -0.89579
O          0.37522       -0.11673       -0.41180
C          1.32887       -0.12698        0.64954
C          2.66994       -0.01735        0.09349
C          3.78570        0.07575       -0.34016
H         -0.57029        1.98111       -0.73569
H         -1.06818        1.23179        1.54299
H         -2.61748        0.84058        0.79079
H         -0.64805       -2.41601        0.54479
H         -2.16677       -1.69417        1.25521
H         -1.26518       -1.59582       -1.73626
H         -2.80896       -0.85867       -1.08656
H          1.15250        0.70491        1.34744
H          1.23656       -1.05620        1.23090
H          4.77088        0.15737       -0.72829
