19
../xyz/dsC7O2H10nsd_5245.xyz
C          2.84430        0.14087        0.22940
C          1.72905       -0.49103       -0.61086
C          0.35608       -0.03535       -0.21618
O          0.10160        1.37573       -0.21465
C         -1.12225        1.05142        0.50894
C         -1.96291        0.39302       -0.60011
C         -0.97719       -0.78027       -0.72594
O         -1.11089       -1.41226        0.58303
C         -0.42764       -0.26599        1.08645
H          3.82709       -0.19564       -0.11275
H          2.80953        1.23109        0.16106
H          2.74553       -0.13225        1.28517
H          1.87870       -0.25517       -1.67258
H          1.75435       -1.58408       -0.52708
H         -1.51391        1.86994        1.10868
H         -2.95037        0.04244       -0.29391
H         -2.02817        1.04344       -1.47413
H         -1.02385       -1.47642       -1.56138
H         -0.06121       -0.32708        2.10958
