19
../xyz/dsC7O2H10nsd_0600.xyz
C          1.15056        0.41846        1.15883
O          0.45483       -0.81619        1.29203
C         -0.10480       -1.31143        0.08755
C         -1.55960       -0.82804       -0.07949
C         -1.75993        0.66135       -0.01538
C         -0.78188        1.56461        0.00104
C          0.68508        1.19780       -0.08209
C          0.98985        0.30809       -1.30086
O          0.71513       -1.06770       -1.02679
H          0.96985        0.98812        2.07614
H          2.23223        0.22806        1.08158
H         -0.11274       -2.40126        0.19025
H         -1.95345       -1.23555       -1.02162
H         -2.14819       -1.29913        0.71909
H         -2.79367        0.99670        0.03430
H         -1.02712        2.62086        0.06912
H          1.28528        2.10968       -0.16206
H          0.41592        0.63670       -2.17691
H          2.05670        0.36181       -1.54934
