19
../xyz/dsC7O2H10nsd_3717.xyz
O         -2.60514       -0.80210       -0.32872
C         -1.88957        0.38584       -0.20390
C         -1.26237        0.76835        1.12819
C         -0.40578        0.31017       -0.03257
C          0.64031        1.17300       -0.73708
C          1.91546        0.35563       -0.58825
C          2.26683       -0.12954        0.80947
C          1.47125       -1.00118       -0.12422
O          0.07243       -1.02673        0.03024
H         -1.95162       -1.51061       -0.39594
H         -2.29669        1.18480       -0.81957
H         -1.23982        1.81608        1.41338
H         -1.39377        0.06026        1.93950
H          0.40171        1.29388       -1.80017
H          0.70393        2.17039       -0.29188
H          2.70534        0.48058       -1.31908
H          3.29912       -0.40900        0.99073
H          1.75970        0.31140        1.66083
H          1.85697       -1.94084       -0.49991
