19
../xyz/dsC7O2H10nsd_4424.xyz
O          0.48843        1.86955        0.53063
C          0.80242        0.81739       -0.33114
C          2.25464        0.28639       -0.26276
C          1.70181       -1.16720       -0.39512
C          0.34294       -0.60671        0.03262
C         -0.39907       -0.92928        1.26340
C         -1.06702       -1.18045       -0.09768
C         -2.14020       -0.26127       -0.51400
O         -2.16900        0.93042       -0.27151
H         -0.46739        1.99777        0.44201
H          0.52561        1.04832       -1.37100
H          2.95651        0.63718       -1.02098
H          2.66751        0.46754        0.73229
H          1.70794       -1.52227       -1.42974
H          2.14479       -1.93337        0.24479
H         -0.12871       -1.81287        1.83219
H         -0.79503       -0.09940        1.83996
H         -1.17366       -2.21114       -0.42016
H         -2.96612       -0.72480       -1.09428
