19
../xyz/dsC7O2H10nsd_3983.xyz
O         -3.15788       -0.70209       -0.14305
C         -1.93008       -0.34694        0.45709
C         -1.71940        1.19062        0.33394
C         -0.47828        0.94028       -0.53031
C          0.50817        0.08392        0.22351
C          1.83684       -0.15469       -0.40957
C          2.94524       -0.79570        0.30896
O          2.93704        0.61572        0.08740
C         -0.68782       -0.56742       -0.42571
H         -3.21597       -1.66320       -0.15403
H         -1.85353       -0.76378        1.47253
H         -2.55326        1.61551       -0.22779
H         -1.57218        1.75812        1.25789
H         -0.16825        1.53148       -1.38387
H          0.54794        0.15972        1.31037
H          1.81895       -0.24706       -1.49780
H          2.80216       -1.10683        1.34349
H          3.70156       -1.35473       -0.24100
H         -0.58870       -1.33863       -1.18206
