19
../xyz/dsC7O2H10nsd_1802.xyz
O          1.91181       -1.36627        0.14815
C          0.97686       -0.34743       -0.01303
C          0.57028        0.46654        1.23847
C          0.07878        1.49067        0.17970
C          1.30161        1.04144       -0.68028
C         -1.04420        0.71517       -0.53341
O         -2.06771        0.13806        0.31102
C         -1.54924       -1.19868        0.10655
C         -0.36217       -0.66522       -0.71437
H          2.01540       -1.82419       -0.69303
H         -0.16097        0.05221        1.93292
H          1.45148        0.82199        1.77531
H         -0.09700        2.53472        0.43179
H          1.23087        1.12555       -1.77013
H          2.24547        1.45740       -0.32351
H         -1.47211        1.23737       -1.39507
H         -1.31237       -1.70499        1.04991
H         -2.25476       -1.81441       -0.46480
H         -0.23041       -1.07484       -1.71868
