19
../xyz/dsC7O2H10nsd_1198.xyz
C          2.52908        0.95701        0.61652
C          1.56158        0.20427       -0.27182
O          1.90062       -1.20016       -0.41037
C          0.57812       -1.61142       -0.01357
C          0.16694       -0.15705        0.29096
C         -1.03764        0.42134       -0.45334
O         -1.05893        1.84459       -0.36561
C         -2.29036       -0.17949        0.01403
C         -3.30268       -0.66116        0.44876
H          2.58324        0.50041        1.60982
H          3.53307        0.95013        0.18090
H          2.20639        1.99837        0.72205
H          1.50347        0.68545       -1.25895
H          0.02389       -2.07936       -0.83908
H          0.59614       -2.30453        0.83451
H          0.06809        0.05334        1.36028
H         -0.91909        0.21138       -1.52413
H         -1.35311        2.07600        0.52262
H         -4.20580       -1.08771        0.81059
