19
../xyz/dsC7O2H10nsd_4597.xyz
C         -3.98229        0.12706        0.58405
C         -3.14335       -0.62503       -0.46492
C         -1.72370       -0.29296       -0.41401
C         -0.55423       -0.01319       -0.35247
C          0.85213        0.36000       -0.31165
C          1.07623        1.82511        0.06868
O          1.50515       -0.49717        0.67880
C          2.78532       -0.80633        0.44137
O          3.45100       -0.44345       -0.49084
H         -3.63753       -0.10456        1.59530
H         -3.90585        1.20826        0.44078
H         -5.03545       -0.15788        0.50434
H         -3.26297       -1.70711       -0.32631
H         -3.52722       -0.40765       -1.46992
H          1.33119        0.15718       -1.27422
H          0.67304        2.02451        1.06446
H          2.14469        2.05224        0.05415
H          0.56875        2.47360       -0.65019
H          3.14153       -1.46163        1.25170
