19
../xyz/dsC7O2H10nsd_0233.xyz
C          1.13577        1.22229       -0.68270
C          0.10536        1.28845        0.49517
C         -1.36987        1.19782        0.13015
O         -1.64976        0.06588       -0.67566
C         -1.37986       -1.15546       -0.01718
C          0.06354       -1.28590        0.44125
O          1.01582       -1.26501       -0.65177
C          1.68608       -0.10638       -0.11509
C          0.69901       -0.02958        1.07794
H          0.70649        1.12115       -1.68130
H          1.85931        2.04166       -0.67377
H          0.26727        2.14891        1.14986
H         -1.98248        1.17017        1.04916
H         -1.68222        2.06838       -0.45596
H         -2.03857       -1.27738        0.86224
H         -1.61506       -1.94907       -0.73321
H          0.17584       -2.20264        1.03655
H          2.76703       -0.24836       -0.04207
H          0.97391       -0.06722        2.13069
