19
../xyz/dsC7O2H10nsd_2571.xyz
C         -3.23855       -0.50280       -0.31605
C         -1.86099       -0.00018       -0.02380
C         -1.35103        1.19856       -0.31330
C          0.06793        1.36285        0.16901
C          0.47285       -0.07327        0.57679
C         -0.84781       -0.85199        0.71417
O          1.21686       -0.70958       -0.49869
C          2.53229       -0.47096       -0.53662
O          3.15588        0.22491        0.21884
H         -3.20683       -1.40327       -0.94267
H         -3.76233       -0.78586        0.60626
H         -3.84216        0.24917       -0.83122
H         -1.89151        1.99368       -0.81574
H          0.75033        1.76564       -0.58606
H          0.12943        2.04084        1.03102
H          1.10038       -0.09718        1.46748
H         -0.74570       -1.86194        0.30185
H         -1.12737       -0.97013        1.77008
H          2.96573       -1.02683       -1.38338
