19
../xyz/dsC7O2H10nsd_5772.xyz
C          3.02559       -0.26076       -0.23174
O          1.85934       -0.16847        0.55597
C          0.67394       -0.46603       -0.15030
C          0.17502        0.70472       -1.07997
C         -1.16503        1.04346       -0.38681
C         -0.76352        0.97744        1.12415
C         -0.50130       -0.54143        0.83628
C         -1.69741       -0.37805       -0.12792
O         -2.67500       -1.00666       -0.40188
H          3.02859        0.46154       -1.06177
H          3.87406       -0.04486        0.42162
H          3.14869       -1.27009       -0.65427
H          0.80311       -1.40559       -0.70683
H          0.87239        1.54611       -1.04095
H          0.04906        0.40210       -2.12266
H         -1.78082        1.83715       -0.80456
H          0.11131        1.55613        1.42206
H         -1.60173        1.14553        1.80151
H         -0.46303       -1.30297        1.61102
