19
../xyz/dsC7O2H10nsd_2454.xyz
C          2.13644       -0.83593       -0.01686
C          0.69013       -0.40705       -0.06410
O         -0.12679       -1.53813       -0.31247
C         -1.43761       -1.23314        0.18552
C         -1.35610        0.26640        0.43725
O         -1.12602        0.84771       -0.87212
C          0.30930        0.89138       -0.88400
C          0.61151        1.71526        0.38898
C          0.04637        0.44997        1.07620
H          2.40318       -1.33221       -0.95514
H          2.81159        0.01151        0.12241
H          2.29570       -1.54905        0.79741
H         -2.18407       -1.47177       -0.57776
H         -1.64822       -1.81565        1.09550
H         -2.21618        0.73026        0.92200
H          0.67374        1.12939       -1.88251
H          1.67163        1.86997        0.59257
H          0.05669        2.64932        0.48912
H          0.15822        0.22020        2.13525
