19
../xyz/dsC7O2H10nsd_3117.xyz
C          1.98969       -1.26231       -0.54979
C          0.82679       -0.96233        0.38832
C         -0.56284       -1.42171       -0.10438
C         -1.63281       -0.94824        0.85853
C         -1.06736        0.04176       -0.09869
O         -1.86598        0.77480       -0.94219
C          0.30971        0.49540        0.31420
C          0.76141        1.77115        0.86593
O          0.95278        1.45019       -0.52870
H          2.90081       -0.75082       -0.22543
H          2.19333       -2.33773       -0.57258
H          1.76987       -0.93205       -1.56904
H          1.06356       -1.29579        1.40650
H         -0.73866       -2.22343       -0.81088
H         -2.63995       -1.26345        0.60217
H         -1.44042       -0.88849        1.92871
H         -1.26890        1.22851       -1.55239
H          0.03999        2.56246        1.06392
H          1.67837        1.81849        1.45147
