19
../xyz/dsC7O2H10nsd_5720.xyz
C          3.52057       -0.75705       -0.32260
O          2.29234       -0.71926        0.37861
C          1.29760       -0.02977       -0.30316
C          1.24668        1.48741       -0.24082
C          0.25625        0.65932        0.52529
O         -1.06373        0.69247        0.08248
C         -1.78303       -0.47874        0.44879
C         -3.14477       -0.40108       -0.06092
C         -4.27295       -0.36272       -0.47013
H          3.91021        0.25303       -0.51293
H          4.23024       -1.30487        0.30157
H          3.41949       -1.27628       -1.28748
H          0.96533       -0.48677       -1.23707
H          2.01010        1.99943        0.33391
H          0.88123        2.01462       -1.11467
H          0.38548        0.59481        1.60681
H         -1.28203       -1.37480        0.05023
H         -1.80104       -0.58666        1.54573
H         -5.27001       -0.32255       -0.83346
