19
../xyz/dsC7O2H10nsd_0636.xyz
C         -2.21633        0.42426        0.52909
C         -2.11313       -0.48460       -0.69107
O         -0.76507       -0.29857       -1.09261
C          0.00832        0.02933        0.06745
C          0.98600       -1.09200        0.49455
C          2.39237       -0.62451        0.05316
C          2.19228        0.83849       -0.26310
C          0.91151        1.19579       -0.25136
O         -0.92914        0.29105        1.11034
H         -2.41801        1.46508        0.23457
H         -2.96396        0.10927        1.26169
H         -2.30938       -1.53332       -0.42159
H         -2.76796       -0.19952       -1.51877
H          0.93317       -1.18474        1.58173
H          0.68733       -2.04575        0.05497
H          3.14917       -0.78084        0.83032
H          2.74716       -1.16573       -0.83324
H          3.02234        1.49855       -0.49224
H          0.50770        2.17651       -0.47164
