19
../xyz/dsC7O2H10nsd_4563.xyz
C          2.56489       -1.23905       -0.42189
C          1.57930       -0.38045        0.37137
O          1.62662        0.92419       -0.17977
C          0.56003        1.76078        0.24492
C         -0.78314        1.23719       -0.26383
C         -0.89489       -0.23131        0.05267
C         -2.21978       -0.87462        0.05226
O         -3.25819       -0.30111       -0.18760
C          0.18965       -0.95439        0.36362
H          2.24154       -1.32414       -1.46282
H          3.55388       -0.77486       -0.40098
H          2.63815       -2.24165        0.00937
H          1.91906       -0.34657        1.42572
H          0.54397        1.82895        1.34503
H          0.77981        2.75547       -0.15123
H         -1.61807        1.77824        0.19417
H         -0.86937        1.39683       -1.34549
H         -2.20289       -1.96088        0.29847
H          0.09009       -2.00495        0.63214
