19
../xyz/dsC7O2H10nsd_0875.xyz
O         -2.74521        0.46300       -0.11134
C         -1.73566       -0.14914       -0.35138
C         -0.56600       -0.29025        0.59883
C         -0.02263       -1.73557        0.57888
O          0.90554       -1.77024       -0.49146
C          1.64071       -0.55789       -0.42273
C          0.64936        0.50316        0.07234
C          1.13118        1.76173        0.74095
C          0.49737        1.83503       -0.62497
H         -1.58347       -0.65597       -1.33185
H         -0.88236        0.03667        1.59213
H          0.46286       -1.96937        1.53953
H         -0.78656       -2.49397        0.38361
H          2.48270       -0.65827        0.28182
H          2.04424       -0.35323       -1.41847
H          0.56902        2.14249        1.58717
H          2.20456        1.90916        0.81626
H         -0.49634        2.26416       -0.70019
H          1.13680        2.03378       -1.47905
