19
../xyz/dsC7O2H10nsd_3113.xyz
O         -0.96439        1.82843       -0.09699
C         -1.42562        0.50080       -0.00763
C         -0.83707       -0.46202       -1.06498
C         -0.97155       -1.58029        0.00910
C         -0.83625       -0.45538        1.07489
C          0.63855       -0.12213        1.30923
C          1.43118        0.01127        0.00179
O          2.62027        0.21813        0.00353
C          0.63996       -0.13404       -1.30287
H         -1.38106        2.35038        0.59575
H         -2.52288        0.45452       -0.00894
H         -1.38012       -0.57597       -2.00586
H         -1.96299       -2.03912        0.01086
H         -0.21245       -2.36771        0.01140
H         -1.38183       -0.56675        2.01574
H          0.75449        0.82302        1.85144
H          1.12714       -0.89173        1.91805
H          0.75304        0.80481       -1.85508
H          1.12444       -0.91317       -1.90283
