19
../xyz/dsC7O2H10nsd_4181.xyz
C         -2.59886        0.31008       -0.27476
C         -1.10477        0.19070       -0.53305
O         -0.72852       -1.19586       -0.45431
C          0.41539       -1.22656        0.38753
O          0.15949       -0.24480        1.37095
C         -0.21147        0.86886        0.55241
C          1.06213        1.50279       -0.02552
C          1.95902        0.42134       -0.58189
C          1.66664       -0.86411       -0.39427
H         -2.93471        1.34395       -0.40801
H         -3.15560       -0.32389       -0.97031
H         -2.83288       -0.00978        0.74503
H         -0.85641        0.57574       -1.53063
H          0.47059       -2.20613        0.86713
H         -0.77205        1.57112        1.17296
H          0.79943        2.22581       -0.80867
H          1.58916        2.07124        0.75310
H          2.84602        0.72521       -1.13116
H          2.27012       -1.66661       -0.80520
