19
../xyz/dsC7O2H10nsd_0318.xyz
C          1.96369        0.34258        0.63881
C          1.29564        1.32917       -0.36457
C         -0.12852        0.79225       -0.63697
C         -1.29969        1.25651        0.23478
O         -2.22736        0.16243        0.23951
C         -1.52319       -1.07519        0.09517
C         -0.09734       -0.65960       -0.19264
O          0.91977       -1.48086       -0.73727
C          1.11889       -0.91371        0.58154
H          3.01624        0.15989        0.40211
H          1.92831        0.72766        1.66485
H          1.29248        2.35602        0.01289
H          1.85560        1.33933       -1.30209
H         -0.40350        0.88623       -1.69262
H         -0.96094        1.48352        1.25937
H         -1.82858        2.13142       -0.15191
H         -1.61396       -1.67904        1.00755
H         -1.95962       -1.64151       -0.73708
H          1.15782       -1.64812        1.38245
