19
../xyz/dsC7O2H10nsd_4603.xyz
C          2.94599        1.21419       -0.34627
C          1.76904        0.72544        0.46489
C          1.81880       -0.60106        1.18048
C          0.93312       -0.45778       -0.03358
O          1.39847       -1.16445       -1.15644
C         -0.49636       -0.40220        0.11197
C         -1.70050       -0.35396        0.17944
C         -3.15398       -0.24790        0.27841
O         -3.69900        0.86623       -0.41763
H          3.71076        1.65349        0.30322
H          3.40088        0.39197       -0.90342
H          2.64062        1.98225       -1.06562
H          1.19289        1.50126        0.96093
H          2.69833       -1.21735        1.02591
H          1.34657       -0.70234        2.15003
H          1.00077       -0.76332       -1.93776
H         -3.62599       -1.13245       -0.16366
H         -3.44261       -0.23564        1.34199
H         -3.21464        1.64749       -0.13118
