19
../xyz/dsC7O2H10nsd_1156.xyz
C          2.39150       -1.04418       -0.51788
C          1.86687        0.22372        0.12324
O          2.33235        1.31600       -0.10116
C          0.66600        0.05589        1.06493
C         -0.60963        0.00006        0.27316
C         -1.31329        1.13563       -0.49358
C         -2.67173        0.38210       -0.26644
C         -1.88781       -0.70852        0.47489
O         -0.90450       -1.21356       -0.44232
H          2.84639       -1.68066        0.25110
H          1.56592       -1.61672       -0.95274
H          3.13782       -0.80232       -1.27535
H          0.75943       -0.86549        1.64892
H          0.64482        0.91659        1.73911
H         -1.27208        2.09484        0.02693
H         -0.98437        1.26787       -1.52629
H         -3.35601        0.93616        0.38009
H         -3.20374        0.04088       -1.15722
H         -2.21245       -1.37892        1.26323
