19
../xyz/dsC7O2H10nsd_3305.xyz
O         -2.29998       -0.74543       -0.73472
C         -0.90739       -0.56360       -0.67290
C         -0.18156       -0.83812        0.63186
C          1.24030       -1.36979        0.60731
C          2.19462       -0.48439       -0.14865
C          1.93372        0.77178       -0.50818
C          0.64890        1.49777       -0.21471
C         -0.48559        0.58776        0.19919
O         -1.51233        1.27887        0.84462
H         -2.49972       -1.66708       -0.54224
H         -0.38160       -0.74721       -1.60936
H         -0.81822       -1.20744        1.43206
H          1.60190       -1.47848        1.64020
H          1.26332       -2.38533        0.18464
H          3.16333       -0.91666       -0.38723
H          2.69432        1.34285       -1.03481
H          0.81030        2.21584        0.60202
H          0.34337        2.10281       -1.07912
H         -2.33646        0.86477        0.55112
