19
../xyz/dsC7O2H10nsd_0003.xyz
C         -2.16835       -0.03859       -1.26989
C         -1.42651        0.42493       -0.00089
C         -2.16740       -0.03275        1.27080
C         -0.00165       -0.01918       -0.00042
C          1.18637        0.65077       -0.00067
O          1.30195        2.01068       -0.00154
C          2.23358       -0.32925        0.00036
C          1.60209       -1.53240        0.00144
O          0.25912       -1.36952        0.00095
H         -2.19315       -1.13157       -1.32479
H         -3.20146        0.32415       -1.26788
H         -1.67511        0.33306       -2.17273
H         -1.39109        1.52084       -0.00340
H         -1.67351        0.34314        2.17152
H         -3.20054        0.32989        1.26788
H         -2.19207       -1.12548        1.33078
H          2.23472        2.24156       -0.00394
H          3.29916       -0.15566        0.00043
H          1.95568       -2.55027        0.00244
