19
../xyz/dsC7O2H10nsd_5424.xyz
O         -1.08760        2.42434       -0.16200
C          0.14780        1.88237        0.27429
C          0.33238        0.44018       -0.15864
C          1.59772       -0.34868        0.23134
O          2.60038       -0.33235       -0.75300
C          0.71917       -1.61808        0.40650
C         -0.51209       -0.66905        0.56072
C         -1.79423       -1.04236        0.00380
C         -2.86110       -1.32867       -0.47383
H         -1.78606        1.80715        0.08225
H          0.92954        2.50956       -0.16864
H          0.25326        1.95573        1.37110
H          0.19127        0.35378       -1.24048
H          1.98429       -0.00823        1.20461
H          3.37755       -0.78422       -0.40952
H          0.66793       -2.17019       -0.53467
H          0.93430       -2.30330        1.22907
H         -0.63289       -0.39934        1.61746
H         -3.79933       -1.59107       -0.89627
