19
../xyz/dsC7O2H10nsd_5550.xyz
O          2.94677       -0.44815       -0.16460
C          1.63288       -0.84956        0.19344
C          0.55766        0.02032       -0.44746
C          0.36717        1.40378        0.22071
O         -0.75191        2.04290       -0.39559
C         -1.00535        1.07210        0.63424
C         -0.89965       -0.29889       -0.00228
C         -1.41313       -1.58274        0.58851
C         -1.97618       -1.05828       -0.71297
H          3.08922        0.44368        0.16715
H          1.53654       -1.88153       -0.15971
H          1.49906       -0.86872        1.28683
H          0.71945        0.07846       -1.52781
H          1.10747        2.04362        0.69016
H         -1.59358        1.39234        1.48707
H         -0.77925       -2.46247        0.55522
H         -2.03130       -1.51897        1.47862
H         -1.70746       -1.57948       -1.62606
H         -2.97943       -0.64529       -0.71508
