19
../xyz/dsC7O2H10nsd_5142.xyz
C         -2.75303       -0.47658        0.00114
O         -1.72195        0.17280       -0.72346
C         -0.49651        0.17128       -0.07105
C         -0.23630        1.04360        1.13215
C          0.44223        1.34573       -0.19232
C          1.85796        0.82788       -0.46774
C          1.75695       -0.69250       -0.42732
O          1.34157       -1.23751        0.83570
C          0.35773       -1.08209       -0.19495
H         -2.93000        0.00735        0.97128
H         -3.65860       -0.40907       -0.60596
H         -2.52398       -1.53661        0.18090
H         -1.03389        1.72338        1.41307
H          0.34495        0.63400        1.94892
H          0.11006        2.23637       -0.71316
H          2.18099        1.13571       -1.46882
H          2.60062        1.20278        0.24492
H          2.47058       -1.30416       -0.97499
H         -0.09184       -1.99604       -0.57358
