19
../xyz/dsC7O2H10nsd_2772.xyz
C          2.08906       -1.48196        0.16679
C          0.70837       -1.15806       -0.35778
C         -0.35675       -0.73456        0.61118
C         -1.67710       -0.49694       -0.12281
C         -2.74510        0.25207        0.64567
O         -1.01712        0.37130       -1.10117
C          0.21401        0.27982       -0.38367
C          0.99800        1.50847       -0.18989
O          1.97628        1.61315        0.51463
H          2.11928       -2.51078        0.54139
H          2.83644       -1.38975       -0.62696
H          2.37870       -0.80263        0.97007
H          0.38351       -1.73587       -1.22200
H         -0.21710       -0.75423        1.68482
H         -2.09591       -1.38072       -0.62031
H         -3.19990       -0.40126        1.39838
H         -2.32163        1.12546        1.15042
H         -3.53057        0.59180       -0.03552
H          0.59093        2.36939       -0.76494
