19
../xyz/dsC7O2H10nsd_0815.xyz
O          2.58476       -0.03513        0.18460
C          1.70475       -0.21896       -0.61944
C          0.42790       -0.95527       -0.30028
C         -0.93246       -0.57296       -0.96760
C         -1.60939       -1.07777        0.33450
C         -0.29467       -0.67305        1.05153
C         -0.28991        0.84681        1.27139
O         -0.26151        1.54683        0.02827
C         -1.04099        0.95879       -1.00580
H          1.81244        0.11935       -1.67618
H          0.61484       -2.02895       -0.42138
H         -1.21481       -1.02477       -1.92091
H         -2.53045       -0.57466        0.64692
H         -1.76694       -2.15930        0.33202
H          0.01118       -1.21013        1.95044
H         -1.16944        1.14389        1.86441
H          0.61219        1.16401        1.80068
H         -2.09858        1.25905       -0.92466
H         -0.64775        1.37225       -1.94014
