19
../xyz/dsC7O2H10nsd_4759.xyz
C          3.71339       -0.64257       -0.25015
O          2.32762       -0.58847       -0.50548
C          1.59808        0.22112        0.41159
C          1.73634        1.71990        0.09608
C          0.19726       -0.20025        0.36707
C         -0.96006       -0.53050        0.35136
C         -2.36974       -0.88650        0.29468
C         -3.19996        0.14133       -0.47828
O         -4.30947        0.47366       -0.16273
H          4.21298        0.32620       -0.39601
H          3.92467       -0.98931        0.77371
H          4.13706       -1.35895       -0.95789
H          1.97978        0.03885        1.43122
H          1.15128        2.31160        0.80531
H          2.78051        2.03635        0.16644
H          1.37284        1.92101       -0.91464
H         -2.49160       -1.84787       -0.22809
H         -2.81229       -1.00759        1.28882
H         -2.69221        0.55296       -1.37737
