19
../xyz/dsC7O2H10nsd_0559.xyz
C         -1.61103        0.19260       -1.01254
C         -1.74623       -1.02683       -0.05547
C         -0.84043       -0.29883        0.97775
C         -0.98714        1.01125        0.15814
O          0.28805        1.61308       -0.01440
C          1.31475        0.71080        0.33847
C          1.84644       -0.20028       -0.78531
O          1.07843       -1.32230       -0.29094
C          0.66109       -0.58596        0.88543
H         -0.89688        0.02098       -1.81954
H         -2.53418        0.59221       -1.43861
H         -2.76246       -1.16454        0.32007
H         -1.36698       -1.97762       -0.42960
H         -1.17095       -0.28670        2.01843
H         -1.65902        1.77123        0.56525
H          2.06154        1.23982        0.93483
H          1.56773        0.09102       -1.80317
H          2.92422       -0.40129       -0.73833
H          1.08041       -1.02782        1.79464
