19
../xyz/dsC7O2H10nsd_2401.xyz
O          0.26038        1.98788       -0.38422
C          0.40252        0.64859       -0.04698
C          1.43270        0.37417        1.06890
C          2.03242       -0.80159        0.23089
C          1.01953       -0.51794       -0.90172
O         -0.19844       -1.28937       -0.76544
C         -0.83428       -0.24647       -0.02370
C         -2.25521        0.15320       -0.27654
C         -1.84659       -0.51021        1.03467
H         -0.40205        2.05171       -1.08218
H          2.12145        1.21449        1.17754
H          1.01700        0.12629        2.04824
H          3.07382       -0.64201       -0.05851
H          1.92899       -1.80014        0.65904
H          1.36180       -0.45674       -1.93698
H         -2.51106        1.20864       -0.25450
H         -2.81787       -0.44212       -0.98747
H         -1.82745        0.09513        1.93550
H         -2.14672       -1.54182        1.18355
