19
../xyz/dsC7O2H10nsd_5485.xyz
C         -2.77175       -0.05422       -0.36995
O         -1.56297       -0.58652        0.12294
C         -0.68312        0.38979        0.60842
C          0.09786        1.29061       -0.35378
C          1.27000        0.53372       -0.95176
C          1.24062       -0.99135       -0.91728
O          1.08852       -1.33311        0.46572
C          0.68009       -0.16067        1.14029
C          1.37283        1.03947        0.45442
H         -2.60917        0.61476       -1.22852
H         -3.39041       -0.89495       -0.69272
H         -3.31451        0.50835        0.40637
H         -1.17263        1.00729        1.37885
H         -0.24307        2.22692       -0.78012
H          1.81750        1.03656       -1.74019
H          0.40733       -1.40605       -1.49523
H          2.18044       -1.42258       -1.28223
H          0.77373       -0.32350        2.21258
H          2.10726        1.72616        0.84983
