19
../xyz/dsC7O2H10nsd_0006.xyz
C         -2.42604       -0.00190       -1.27049
C         -1.73379       -0.53160        0.00009
C         -2.42595       -0.00148        1.27052
C         -0.27255       -0.21119        0.00001
C          0.85018       -0.98391        0.00014
C          1.96218       -0.07675       -0.00000
O          3.28986       -0.37532        0.00016
C          1.44088        1.17909       -0.00018
O          0.07190        1.10257       -0.00017
H         -1.96772       -0.41750       -2.17263
H         -3.48773       -0.26869       -1.26945
H         -2.34876        1.08814       -1.32458
H         -1.80387       -1.62608        0.00027
H         -1.96775       -0.41695        2.17279
H         -2.34840        1.08855        1.32433
H         -3.48771       -0.26800        1.26952
H          0.88578       -2.06337        0.00037
H          3.38930       -1.33128       -0.00062
H          1.87333        2.16362       -0.00030
