19
../xyz/dsC7O2H10nsd_3899.xyz
C          3.00795       -0.84333        0.42916
C          2.00635       -0.05643       -0.40637
C          0.67488       -0.82772       -0.73573
C         -0.08953        0.22415        0.08844
C         -1.38552        0.08141        0.83091
C         -2.57655        0.02942       -0.11319
O         -3.44041       -0.80703       -0.07209
O          0.18670        1.49842       -0.52163
C          1.15627        0.95519        0.38368
H          3.43177       -1.67162       -0.14752
H          3.83571       -0.20651        0.75974
H          2.53535       -1.26671        1.32302
H          2.49217        0.39369       -1.27700
H          0.38355       -0.89725       -1.78640
H          0.65654       -1.82338       -0.28399
H         -1.39516       -0.81553        1.45685
H         -1.51413        0.96307        1.47312
H         -2.59641        0.84951       -0.86434
H          1.43718        1.56749        1.23493
