19
../xyz/dsC7O2H10nsd_3639.xyz
C         -2.59399       -0.55201       -0.45912
C         -1.12133       -0.18466       -0.56521
O         -0.34270       -1.31758       -0.13292
C          0.72925       -0.86916        0.68866
C          0.14144        0.34867        1.42702
C         -0.68073        1.02235        0.31279
O          0.05201        1.99476       -0.41035
C          1.92191       -0.52577       -0.10494
C          2.88365       -0.23561       -0.76791
H         -2.88298       -0.70555        0.58590
H         -3.21738        0.24253       -0.88088
H         -2.79524       -1.47702       -1.00621
H         -0.86694        0.05081       -1.60728
H          0.97913       -1.69178        1.36617
H         -0.51159       -0.01331        2.22655
H          0.88733        1.02332        1.84904
H         -1.54758        1.55407        0.71259
H          0.85797        1.57607       -0.73878
H          3.74161        0.00055       -1.34862
