19
../xyz/dsC7O2H10nsd_2596.xyz
C         -2.34470       -1.07740        0.44011
C         -0.96188       -0.63414        0.03952
C          0.03930       -1.50365       -0.17199
C          1.42622       -1.16469       -0.65145
C          2.20238       -0.21689        0.28562
O          1.43463        0.85720        0.78635
C          0.57422        1.48049       -0.14083
C         -0.81848        0.83488       -0.19458
O         -1.79301        1.53567       -0.38387
H         -3.07948       -0.75570       -0.30382
H         -2.39647       -2.16333        0.54866
H         -2.64534       -0.61602        1.38723
H         -0.17302       -2.56013       -0.02127
H          2.01853       -2.07696       -0.77150
H          1.37200       -0.71462       -1.65029
H          2.54969       -0.75939        1.17029
H          3.08855        0.15779       -0.25176
H          0.42463        2.51222        0.18795
H          1.00557        1.52159       -1.15388
