19
../xyz/dsC7O2H10nsd_2915.xyz
C         -2.13941       -0.84853       -0.18265
C         -0.71223       -0.37159       -0.10680
O         -0.19493       -0.62799        1.21486
C          1.24059       -0.61416        1.15594
C          1.58097       -0.49078       -0.31758
C          0.91957        0.60222       -1.13250
C          0.36286       -0.82705       -1.11733
C         -0.36118        1.11318       -0.46143
O         -0.31136        2.02336        0.60356
H         -2.75696       -0.31951        0.54954
H         -2.55210       -0.66391       -1.17831
H         -2.19972       -1.92030        0.02936
H          1.63117        0.21832        1.75459
H          1.62084       -1.55263        1.57860
H          2.55316       -0.82612       -0.65994
H          1.45948        1.10080       -1.92903
H          0.27892       -1.56952       -1.89862
H         -1.04167        1.50820       -1.22419
H         -0.28989        1.48194        1.40479
