19
../xyz/dsC7O2H10nsd_1347.xyz
O         -1.23067        1.85852       -0.14899
C         -0.90478        0.47983       -0.27320
C         -2.11130       -0.35232        0.14073
O         -2.40744       -1.42551       -0.31849
C          0.28872        0.18606        0.65969
C          1.49979        1.09711        0.30223
C          2.41645        0.17775       -0.46682
C          2.04361       -1.09686       -0.37574
C          0.80273       -1.27088        0.46680
H         -1.84424        2.09224       -0.85254
H         -0.62708        0.21379       -1.30316
H         -2.71808        0.13912        0.93676
H         -0.04549        0.36649        1.68592
H          1.18576        1.98022       -0.26159
H          1.99198        1.47359        1.20924
H          3.28875        0.53960       -1.00007
H          2.56293       -1.93774       -0.82185
H          0.05452       -1.91644       -0.00563
H          1.04443       -1.73908        1.43050
