19
../xyz/dsC7O2H10nsd_4934.xyz
C         -0.17797        2.45766        0.10391
C          0.86561        1.36159       -0.10978
C          0.28793       -0.06283       -0.07776
O         -0.67488       -0.25052       -1.12218
C         -1.91441       -0.72751       -0.59645
C         -1.69716       -0.81310        0.88730
C         -0.46178       -0.42863        1.18569
C          1.40472       -1.10055       -0.27819
O          2.51945       -1.00106        0.16126
H          0.28614        3.44618        0.04060
H         -0.95820        2.40167       -0.66046
H         -0.65832        2.37460        1.08374
H          1.35574        1.49733       -1.08071
H          1.65824        1.41196        0.64348
H         -2.72551       -0.03388       -0.86484
H         -2.16020       -1.70300       -1.04255
H         -2.46357       -1.13336        1.58176
H         -0.00032       -0.38437        2.16335
H          1.06786       -1.98424       -0.86540
