19
../xyz/dsC7O2H10nsd_0962.xyz
O         -3.90197       -0.13049        0.15591
C         -2.83010        0.02261       -0.36601
C         -1.50984       -0.10430        0.37224
O         -0.46783        0.03123       -0.57213
C          0.79795        0.04030       -0.01738
C          1.35486        1.25517        0.67222
C          2.03815        0.71554       -0.56917
C          2.88234       -0.50996       -0.19457
C          1.59320       -1.22112        0.34392
H         -2.71595        0.27947       -1.44230
H         -1.45815        0.67887        1.14539
H         -1.48035       -1.07575        0.88867
H          0.77961        2.16073        0.50687
H          1.83862        1.19151        1.64499
H          2.15231        1.32302       -1.45806
H          3.31151       -1.02437       -1.05645
H          3.67490       -0.32840        0.53796
H          1.30937       -2.07214       -0.27943
H          1.58717       -1.52827        1.39453
