19
../xyz/dsC7O2H10nsd_5855.xyz
C         -2.58316       -1.25136       -0.00120
O         -1.36713       -0.84769        0.60491
C         -0.43695       -0.32454       -0.30572
O         -0.86252        0.89580       -0.86815
C         -0.40323        1.94893       -0.02089
C          1.01348        1.52131        0.36737
C          0.86371       -0.01941        0.50332
C          2.02450       -0.77265        0.05745
C          2.98488       -1.38876       -0.32095
H         -2.41098       -2.03734       -0.75180
H         -3.21768       -1.65109        0.79260
H         -3.08982       -0.40865       -0.48521
H         -0.28757       -1.02056       -1.14084
H         -0.44609        2.87922       -0.59147
H         -1.04982        2.04538        0.86282
H          1.71391        1.75726       -0.43728
H          1.37221        1.98651        1.28781
H          0.64022       -0.28106        1.54243
H          3.83346       -1.93578       -0.64950
