19
../xyz/dsC7O2H10nsd_1470.xyz
C         -2.24256       -0.40943        0.59677
C         -0.96418        0.08355       -0.07616
O         -1.23735        0.84084       -1.23135
C          0.04502        0.66542        0.96738
C          1.28790        1.29059        0.28531
C          1.81173       -0.13217       -0.02075
O          1.13301       -0.71999       -1.15266
C          0.01167       -1.09627       -0.33574
C          0.77392       -0.73291        0.97190
H         -2.85354       -0.96975       -0.11776
H         -2.02660       -1.05774        1.45215
H         -2.83204        0.43746        0.96953
H         -1.91673        1.48867       -1.01482
H         -0.36963        1.15424        1.85066
H          1.11663        1.94370       -0.57310
H          1.92854        1.79144        1.01830
H          2.88633       -0.32348       -0.04473
H         -0.40559       -2.06466       -0.62363
H          0.96640       -1.37929        1.82322
