19
../xyz/dsC7O2H10nsd_2611.xyz
C         -1.38491       -0.42464        1.39350
C         -0.98484        0.10382        0.00120
C         -2.17283        0.00135       -0.96722
C         -0.47920        1.53231        0.11804
C          0.85428        1.65545        0.04800
C          1.44006        0.31511       -0.13099
O          2.57773       -0.06769        0.03888
C          0.28980       -0.61917       -0.52360
O          0.49183       -1.92432       -0.05632
H         -1.69942       -1.46839        1.32074
H         -0.54686       -0.37504        2.09344
H         -2.21165        0.16386        1.80465
H         -2.48390       -1.04171       -1.08169
H         -3.03292        0.56932       -0.59583
H         -1.91485        0.38904       -1.95812
H         -1.17182        2.35452        0.27598
H          1.43804        2.55888        0.16817
H          0.24769       -0.60644       -1.62809
H          1.44501       -1.99328        0.10665
