19
../xyz/dsC7O2H10nsd_4439.xyz
O         -1.74449        1.51175        0.43723
C         -1.40952        0.15406        0.58455
C         -1.94782       -0.85761       -0.44673
O         -0.61347       -1.28816       -0.76696
C         -0.01048       -0.20570        0.02459
C          1.09306       -0.68766        0.98559
C          2.43605       -0.20617        0.38395
C          2.00344        0.78788       -0.66458
C          0.68370        0.80682       -0.84268
H         -2.59730        1.66528        0.85507
H         -1.53809       -0.18260        1.62204
H         -2.57058       -1.68002       -0.07461
H         -2.44841       -0.37192       -1.29561
H          0.93586       -0.23121        1.96846
H          1.03491       -1.77134        1.10981
H          3.09216        0.24294        1.13852
H          3.00846       -1.02631       -0.06874
H          2.71420        1.39457       -1.21620
H          0.14185        1.42212       -1.54903
