19
../xyz/dsC7O2H10nsd_3531.xyz
C          2.30324       -1.32998        0.58530
C          1.31539       -0.52344       -0.24436
C          1.65356        0.98184       -0.50021
C          0.25126        1.34416       -0.00972
O         -0.41902        2.33496       -0.01561
C         -0.02393       -0.11929        0.43448
C         -1.32398       -0.71657       -0.08443
C         -2.58258       -0.15784        0.54157
O         -1.33021       -1.54418       -0.96608
H          1.90960       -2.32772        0.80466
H          3.25294       -1.45584        0.05502
H          2.51875       -0.83548        1.54013
H          1.08984       -1.04085       -1.17984
H          2.42634        1.38046        0.16750
H          1.88925        1.29054       -1.52232
H         -0.00502       -0.17621        1.53048
H         -3.46370       -0.56295        0.04280
H         -2.61554       -0.40740        1.60850
H         -2.56629        0.93602        0.47080
