19
../xyz/dsC7O2H10nsd_4960.xyz
C          2.57351        0.15112        0.42611
O          1.74419       -0.45920       -0.55353
C          0.39942       -0.31274       -0.33017
C         -0.37201       -1.12862        0.73718
O         -1.58334       -0.43435        1.03448
C         -1.66024       -0.15328       -0.39666
C         -0.66313       -1.32381       -0.71691
C         -0.52127        0.87895       -0.65299
C         -0.50153        2.16117        0.16559
H          2.33058       -0.20737        1.43511
H          3.60238       -0.12250        0.18270
H          2.48254        1.24469        0.41125
H          0.08223       -1.76811        1.48249
H         -2.67553       -0.01243       -0.76075
H         -0.66986       -2.17663       -1.38034
H         -0.46490        1.07879       -1.72873
H         -0.60722        1.93727        1.22970
H          0.43036        2.71584        0.01448
H         -1.32574        2.82213       -0.12641
