19
../xyz/dsC7O2H10nsd_2419.xyz
O         -2.34895       -0.32852        0.08953
C         -1.02761        0.11032        0.01180
C         -0.77403        1.62255        0.00893
C          0.77391        1.62260       -0.00893
C          1.02759        0.11038       -0.01180
O          2.34895       -0.32837       -0.08953
C          0.00692       -0.59173       -0.94687
C          0.00011       -1.81936       -0.00000
C         -0.00689       -0.59173        0.94686
H         -2.82890        0.02797       -0.66564
H         -1.20865        2.10766       -0.87269
H         -1.20077        2.10020        0.89586
H          1.20062        2.10027       -0.89586
H          1.20850        2.10773        0.87270
H          2.82886        0.02808        0.66568
H          0.01419       -0.57158       -2.03916
H         -0.90585       -2.42596       -0.00296
H          0.90616       -2.42583        0.00295
H         -0.01417       -0.57158        2.03916
