19
../xyz/dsC7O2H10nsd_5719.xyz
C         -3.96181        1.04825        0.08808
C         -2.80604        0.16505        0.01926
C         -1.86125       -0.57925       -0.03550
C         -0.69174       -1.44887       -0.11388
C          0.58290       -0.66841       -0.39178
O          1.80935       -1.36435       -0.18016
C          1.49949       -0.26241        0.68032
C          2.39738        0.95638        0.59281
O          2.48102        1.53545       -0.69436
H         -4.15329        1.37756        1.11535
H         -3.81548        1.94473       -0.52463
H         -4.86672        0.54702       -0.27283
H         -0.56481       -2.01646        0.81585
H         -0.82767       -2.19148       -0.91153
H          0.56806       -0.07103       -1.30253
H          1.24831       -0.55588        1.70267
H          2.06587        1.68493        1.34973
H          3.41824        0.65796        0.85755
H          1.65090        1.98944       -0.86925
