19
../xyz/dsC7O2H10nsd_2886.xyz
C          2.40805        0.38143       -0.06160
C          1.22488       -0.37563       -0.64899
C          0.02087        0.39730       -1.24505
C         -0.96924       -0.78364       -0.96596
C         -2.00636        0.11794       -0.26237
C         -0.63323        0.67579        0.16199
O         -0.34885        1.68463        1.06873
C          0.01366       -0.75060        0.24322
O         -0.06155       -1.63286        1.30431
H          3.04958        0.78195       -0.85456
H          2.07827        1.21529        0.56337
H          3.02885       -0.28263        0.55120
H          1.56347       -1.20508       -1.28299
H         -0.01374        1.05377       -2.11300
H         -1.13028       -1.63266       -1.62581
H         -2.62413        0.75099       -0.90814
H         -2.60634       -0.34983        0.52271
H         -0.76904        2.49739        0.76681
H          0.35483       -1.21889        2.06863
