19
../xyz/dsC7O2H10nsd_5159.xyz
C          2.43099        0.01251        0.91621
C          1.76927       -0.48570       -0.37403
C          0.26268       -0.36611       -0.36471
C         -0.62743       -1.32008       -1.14650
C         -0.71778       -1.27206        0.34833
C         -1.79620       -0.36118        0.90605
O         -1.56454        0.93753        0.33344
C         -0.33567        1.00817       -0.26261
O          0.13804        2.04723       -0.62521
H          3.51826       -0.09422        0.86053
H          2.20601        1.06961        1.08379
H          2.08240       -0.55359        1.78683
H          2.14934        0.08980       -1.22592
H          2.03913       -1.53261       -0.55510
H         -1.44401       -0.91815       -1.73876
H         -0.12330       -2.17207       -1.58952
H         -0.38769       -2.11567        0.94217
H         -2.81162       -0.66845        0.63695
H         -1.73172       -0.27595        1.99676
