19
../xyz/dsC7O2H10nsd_0677.xyz
O         -2.85522       -0.51860       -0.14941
C         -1.74805       -0.07622       -0.08126
C         -1.06705        1.20644       -0.58372
C         -0.02106        1.00425        0.56006
C          1.47002        1.24344        0.31403
C          2.09735        0.13984       -0.55005
C          1.65722       -1.23116       -0.04190
O          0.24491       -1.37505       -0.13607
C         -0.47504       -0.48816        0.70234
H         -0.64261        1.05946       -1.58190
H         -1.67007        2.11672       -0.58358
H         -0.35089        1.55939        1.44346
H          1.62656        2.23081       -0.13488
H          1.98287        1.25908        1.28460
H          1.78753        0.23647       -1.59734
H          3.18993        0.21637       -0.52915
H          2.07578       -2.03866       -0.64879
H          1.98927       -1.38114        0.99956
H         -0.58620       -0.89982        1.71488
