19
../xyz/dsC7O2H10nsd_2903.xyz
C          2.75626       -0.23305       -0.28442
C          1.28646       -0.58737       -0.39574
C          0.50957       -0.67888        0.91414
C         -0.98772       -1.08804        0.78082
C         -1.45212       -1.29522       -0.65710
C         -1.21372        0.08613       -0.16628
O         -2.18264        1.06372       -0.23910
C          0.29450        0.48238       -0.01540
O          0.61041        1.81331        0.22266
H          3.35706       -1.12540       -0.08067
H          3.12537        0.21068       -1.21591
H          2.93058        0.48882        0.51804
H          1.06330       -1.27532       -1.20627
H          1.03290       -0.68512        1.86205
H         -1.57688       -1.44621        1.61533
H         -0.85459       -1.78401       -1.42061
H         -2.51004       -1.53743       -0.71631
H         -1.89962        1.77626        0.34822
H          0.75035        2.24574       -0.62843
