19
../xyz/dsC7O2H10nsd_1471.xyz
C         -2.11053       -1.02590        0.13105
C         -1.03605        0.04149       -0.05670
O         -1.61853        1.26700       -0.45795
C          0.04525        0.06521        1.08113
C          0.94603        1.22820        0.62950
C          1.38542        0.50386       -0.65972
O          2.10657       -0.63811       -0.09975
C          0.80380       -1.09605        0.26680
C          0.12724       -0.41240       -0.94304
H         -2.69313       -1.14555       -0.78756
H         -1.68775       -1.99743        0.40161
H         -2.79840       -0.73502        0.93515
H         -2.34676        1.46683        0.14022
H         -0.22762       -0.02991        2.13154
H          0.38640        2.14870        0.46519
H          1.80778        1.40526        1.27531
H          1.93250        1.03274       -1.43790
H          0.73913       -2.13835        0.57104
H          0.01646       -0.86487       -1.92713
