19
../xyz/dsC7O2H10nsd_1812.xyz
C         -2.07624        1.52759       -0.32690
C         -1.30636        0.25823       -0.08264
C         -1.06818       -0.47979        1.27945
C         -0.31297       -1.33536        0.21946
C         -1.55713       -1.15779       -0.69641
C          0.18428       -0.01030       -0.40298
O          1.10673        0.80166        0.33944
C          2.40639        0.51062        0.18431
O          2.86013       -0.37325       -0.48859
H         -1.62503        2.36661        0.21302
H         -2.09140        1.78097       -1.39262
H         -3.11339        1.42800        0.00992
H         -0.46218        0.04165        2.02077
H         -1.94943       -0.94222        1.73184
H          0.26925       -2.24125        0.37725
H         -1.40588       -1.26746       -1.77455
H         -2.46721       -1.66246       -0.36544
H          0.49124       -0.03405       -1.45041
H          3.00043        1.22364        0.77770
