19
../xyz/dsC7O2H10nsd_5013.xyz
C          2.31670       -0.88915        0.19147
O          1.67639        0.03768       -0.67726
C          0.46333        0.47744       -0.21626
C          0.10811        1.20113        1.13812
C         -1.22695        1.13650        0.33030
C         -0.40203        1.54373       -0.93330
C         -0.85211       -0.30923       -0.01777
C         -1.50300       -1.45026       -0.63653
O         -1.05956       -1.46954        0.75001
H          1.66984       -1.74629        0.41186
H          3.21760       -1.23164       -0.32133
H          2.60281       -0.41266        1.13907
H          0.15337        0.60566        2.05145
H          0.53715        2.19734        1.26949
H         -2.19677        1.51895        0.63451
H         -0.81366        1.27307       -1.90832
H          0.00031        2.55855       -0.92294
H         -2.58378       -1.46396       -0.76774
H         -0.94580       -2.10513       -1.30424
