19
../xyz/dsC7O2H10nsd_0732.xyz
O         -0.70923        2.10216       -0.00403
C         -0.81117        0.90256       -0.00604
C         -2.10460        0.09188        0.11205
O         -1.70343       -1.26191        0.19789
C         -0.44861       -1.38076       -0.47864
C          0.32049       -0.10755       -0.13212
C          1.56332        0.27973       -0.97150
C          2.48334       -0.19956        0.18276
C          1.25354       -0.19590        1.12853
H         -2.68278        0.36323        1.00007
H         -2.72787        0.28625       -0.77742
H          0.02428       -2.30294       -0.13201
H         -0.60132       -1.45463       -1.56895
H          1.66789       -0.21483       -1.94104
H          1.59866        1.36302       -1.11671
H          2.87157       -1.20730        0.01267
H          3.31742        0.44985        0.45592
H          1.09950       -1.06193        1.77652
H          1.19615        0.71486        1.72986
