19
../xyz/dsC7O2H10nsd_1939.xyz
C          2.24146       -0.51824       -0.92072
C          1.00652       -0.47347       -0.06884
C          1.01431        0.00137        1.37949
C          0.16453        0.69968        0.35236
O          0.31614        2.02254       -0.03783
C         -1.13484       -0.06816       -0.05511
O         -2.16875        0.60173       -0.67322
C         -1.33593       -1.36518        0.63767
C         -0.28356       -1.26701       -0.46139
H          2.92509        0.29674       -0.66456
H          2.78079       -1.46428       -0.79142
H          1.99124       -0.42242       -1.98367
H          0.60662       -0.57283        2.20509
H          1.91473        0.55494        1.63551
H         -0.00721        2.58778        0.67378
H         -1.76446        1.29196       -1.21447
H         -1.09999       -1.53945        1.68335
H         -2.23190       -1.88309        0.30496
H         -0.32902       -1.89741       -1.34084
