19
../xyz/dsC7O2H10nsd_1158.xyz
C         -2.01423        1.26305       -0.72469
C         -2.05128       -0.07432       -0.00873
O         -2.91609       -0.89026       -0.21790
C         -0.93655       -0.35633        1.01364
C          0.44964       -0.24765        0.43983
C          1.12882       -1.16068       -0.25183
C          2.48321       -0.63040       -0.62174
O          2.51491        0.70208       -0.11164
C          1.31513        0.98007        0.59505
H         -1.97013        2.08759       -0.00459
H         -1.11473        1.33080       -1.34584
H         -2.89879        1.36693       -1.35375
H         -1.05282        0.35476        1.84288
H         -1.12365       -1.35867        1.40477
H          0.79031       -2.15633       -0.51117
H          3.29977       -1.22450       -0.17980
H          2.65221       -0.61210       -1.70973
H          1.53160        1.18460        1.65809
H          0.84726        1.88999        0.18631
