19
../xyz/dsC7O2H10nsd_3123.xyz
C         -2.37012       -1.31357        0.10855
C         -1.02267       -0.67013        0.06247
C          0.17054       -1.25105       -0.10378
C          1.28619       -0.25504       -0.04068
C          2.60024       -0.48434       -0.73073
O          1.35367        0.41632        1.25476
C          0.64173        1.04613        0.19049
C         -0.87273        0.83317        0.24873
O         -1.56503        1.50621       -0.79662
H         -2.83466       -1.18891        1.09531
H         -3.04166       -0.84375       -0.61830
H         -2.31253       -2.38380       -0.10591
H          0.33618       -2.31438       -0.23756
H          3.11466       -1.35396       -0.30701
H          2.44838       -0.67131       -1.79888
H          3.25172        0.38498       -0.61414
H          1.03968        1.99326       -0.17068
H         -1.26430        1.13301        1.23381
H         -1.64561        2.43368       -0.55208
