19
../xyz/dsC7O2H10nsd_5789.xyz
O          3.10161        0.23342       -0.20916
C          2.03764       -0.62864        0.16181
C          0.68354       -0.17873       -0.39017
C          0.21204        1.19413        0.18206
C         -1.27085        0.97050        0.45466
O         -1.90660        0.60963       -0.81935
C         -1.85038       -0.76229       -0.42786
C         -1.41208       -0.47865        0.97208
C         -0.44543       -1.13785        0.00317
H          2.94123        1.09200        0.19511
H          2.30005       -1.61060       -0.24664
H          1.97271       -0.73783        1.25766
H          0.77062       -0.11219       -1.47955
H          0.72621        1.43012        1.12535
H          0.37239        2.02346       -0.51207
H         -1.81046        1.77631        0.95470
H         -2.57822       -1.44374       -0.85249
H         -1.73956       -0.83418        1.93859
H         -0.24194       -2.19844        0.11280
