19
../xyz/dsC7O2H10nsd_0969.xyz
O         -4.16189        0.01042       -0.28393
C         -3.14187       -0.08051        0.34828
C         -1.79410       -0.45814       -0.22135
C         -0.72795        0.61741        0.06620
C          0.65398        0.20166       -0.39361
C          1.83466        0.89889        0.25878
C          3.13011        0.34406       -0.32285
O          2.70917       -1.02467       -0.05935
C          1.52264       -0.54623        0.57414
H         -3.13026        0.12515        1.44595
H         -1.48406       -1.40103        0.25122
H         -1.90400       -0.63644       -1.29479
H         -1.01649        1.55484       -0.42533
H         -0.70545        0.83185        1.14347
H          0.73487       -0.07561       -1.44412
H          1.73187        1.79357        0.85847
H          3.33034        0.52114       -1.38628
H          4.01916        0.58926        0.26877
H          1.18087       -1.05161        1.47136
