19
../xyz/dsC7O2H10nsd_2711.xyz
C          0.41790        2.32482        0.35153
C          0.21083        1.08939       -0.51226
C         -0.92591        0.09748       -0.15205
C         -2.41255        0.29516       -0.13298
C         -0.06388       -0.61089        0.95496
O         -0.30422       -1.95161        0.43710
C         -0.16057       -1.12618       -0.75480
C          0.96444       -0.21277       -0.14225
O          2.31745       -0.43842       -0.04170
H          1.40278        2.76902        0.17207
H         -0.33418        3.09169        0.13725
H          0.35544        2.08449        1.41839
H          0.25221        1.34190       -1.58041
H         -2.79234        0.55652       -1.12669
H         -2.90646       -0.62686        0.19068
H         -2.70032        1.09688        0.55561
H         -0.03852       -0.46620        2.03425
H         -0.24980       -1.59216       -1.73676
H          2.72363       -0.27711       -0.90042
