19
../xyz/dsC7O2H10nsd_3674.xyz
C          0.88145        1.99423        0.43832
C          0.53201        0.82979       -0.47478
C          1.65465       -0.18188       -0.79681
O          2.05240       -0.80500        0.43074
C          0.88137       -1.30235       -0.23908
C         -0.26300       -0.37598        0.10977
C         -1.20043       -0.41286        1.28692
C         -1.71589       -0.62127       -0.12021
O         -2.41530        0.40317       -0.76605
H          1.40992        1.63694        1.32611
H          1.52126        2.71836       -0.07788
H         -0.02192        2.52226        0.76076
H          0.04451        1.17604       -1.39138
H          2.38273       -0.15860       -1.59969
H          0.86339       -2.35559       -0.49580
H         -1.16700       -1.26000        1.96479
H         -1.43175        0.53917        1.75501
H         -2.02066       -1.63111       -0.39992
H         -3.29815        0.44915       -0.38425
