19
../xyz/dsC7O2H10nsd_3233.xyz
C          2.22977       -0.52622        0.64132
C          1.03474       -0.74659       -0.27687
C         -0.25853       -1.23952        0.44832
C         -1.30071       -1.41498       -0.69133
C         -1.23405        0.10160       -0.84290
C          0.24510        0.52857       -0.56853
O          0.73990        1.75021       -0.97649
C         -0.71667        0.29185        0.56150
O         -1.22490        1.06834        1.56590
H          3.00944        0.05688        0.14101
H          1.93751        0.02403        1.54376
H          2.66718       -1.47922        0.95700
H          1.32524       -1.35248       -1.14631
H         -0.17986       -1.95253        1.26711
H         -1.00523       -2.04514       -1.53825
H         -2.27524       -1.73947       -0.31576
H         -1.88122        0.77666       -1.38967
H          0.77618        1.76363       -1.93937
H         -0.49199        1.43101        2.07620
