19
../xyz/dsC7O2H10nsd_4667.xyz
C          3.20595       -0.41422        0.09474
C          1.74213       -0.77641       -0.13678
C          0.80556        0.41045       -0.01271
O          1.18114        1.53497        0.25039
C         -0.63755        0.13225       -0.22246
C         -1.65678        1.15956       -0.63341
C         -1.83434        0.45126        0.67745
C         -2.21969       -1.00309        0.42874
O         -1.10797       -1.19318       -0.49088
H          3.35327       -0.00202        1.09637
H          3.84319       -1.29604       -0.01448
H          3.53831        0.34447       -0.61850
H          1.58314       -1.22144       -1.12884
H          1.39443       -1.54934        0.56119
H         -1.30719        2.18279       -0.55560
H         -2.29849        0.92878       -1.47911
H         -1.83242        0.96045        1.63116
H         -2.10391       -1.64653        1.30731
H         -3.18738       -1.19422       -0.04890
