19
../xyz/dsC7O2H10nsd_3107.xyz
O         -0.08301        1.76926        0.56564
C          0.99598        1.04482        0.05267
C          1.51365       -0.25684        0.76623
C          2.22175       -0.57036       -0.57942
C          0.78998       -0.10748       -0.97480
C          0.28310       -1.02888        0.19063
C         -1.11533       -0.89086        0.84570
C         -2.18523       -0.56827       -0.17022
O         -2.27584        0.50648       -0.72446
H         -0.87161        1.58171        0.03146
H          1.80092        1.74375       -0.20681
H          1.92917       -0.34576        1.77111
H          3.04260        0.08985       -0.86942
H          2.46188       -1.61831       -0.76890
H          0.37804       -0.02990       -1.98219
H          0.48228       -2.08787       -0.00256
H         -1.36669       -1.82221        1.36139
H         -1.10174       -0.07680        1.57374
H         -2.90739       -1.37318       -0.42192
