19
../xyz/dsC7O2H10nsd_2441.xyz
C         -2.13205       -0.93745        0.13207
C         -0.66534       -0.58551        0.12646
C          0.37900       -1.59918       -0.35799
C          1.57316       -0.72894       -0.84223
C          1.30347        0.61384       -0.17603
O          1.24720        0.40217        1.27577
C         -0.17869        0.38681        1.21579
C         -0.23636        0.81847       -0.21933
O         -0.98243        1.70354       -0.96320
H         -2.74059       -0.10162        0.49108
H         -2.48176       -1.18462       -0.87635
H         -2.32800       -1.80082        0.77748
H          0.68001       -2.27274        0.45012
H         -0.02709       -2.21839       -1.16394
H          2.54564       -1.13979       -0.55767
H          1.56124       -0.60523       -1.93179
H          1.96535        1.44365       -0.43479
H         -0.73812        0.62981        2.11248
H         -0.81403        2.59578       -0.63961
