19
../xyz/dsC7O2H10nsd_3459.xyz
C         -2.49634        0.15971       -0.24085
C         -1.06059        0.36964        0.17237
C         -0.47370       -0.41042        1.35186
C          0.02941       -0.67005       -0.03334
O         -0.21006       -1.94758       -0.54683
C          1.30614        0.05682       -0.46675
O          2.44221       -0.19050        0.35254
C          0.91814        1.51707       -0.38937
C         -0.36684        1.67636       -0.06935
H         -2.66329        0.47342       -1.27791
H         -2.76691       -0.89724       -0.16140
H         -3.18421        0.73188        0.39175
H          0.17039        0.10311        2.05670
H         -1.09884       -1.19523        1.76606
H         -0.33761       -1.86846       -1.49931
H          1.53870       -0.22965       -1.51053
H          2.58035       -1.14404        0.36569
H          1.63999        2.30563       -0.56295
H         -0.87312        2.63045        0.03871
