19
../xyz/dsC7O2H10nsd_4012.xyz
C         -3.05532       -0.00864       -0.04960
C         -1.59702       -0.02128       -0.45917
O         -0.90608       -1.20152        0.05857
C          0.00079       -0.39659        0.82760
C         -0.63895        0.90879        0.31650
O          0.54934        1.26287       -0.41493
C          1.22315        0.08194        0.05836
C          2.19902       -0.67724       -0.76726
C          2.66115        0.10092        0.45928
H         -3.15739       -0.01132        1.04042
H         -3.55631        0.88124       -0.44610
H         -3.56436       -0.89470       -0.44027
H         -1.47829        0.06034       -1.54583
H          0.11794       -0.74050        1.85678
H         -1.04676        1.73430        0.90201
H          2.17257       -1.76097       -0.72839
H          2.44516       -0.26098       -1.73809
H          2.95844       -0.44895        1.34677
H          3.20607        1.02326        0.28927
