19
../xyz/dsC7O2H10nsd_5877.xyz
O         -4.49314       -0.01991        0.06517
C         -3.14658        0.10411        0.48057
C         -2.15781       -0.17852       -0.66898
C         -0.76664       -0.10207       -0.24260
C          0.36817       -0.03105        0.15788
C          1.74454        0.04466        0.59792
C          2.70533        1.05159       -0.09714
O          3.68201        0.02058       -0.32964
C          2.76152       -1.00970        0.07385
H         -4.68764        0.70415       -0.53838
H         -2.93715        1.09394        0.91134
H         -3.00199       -0.63471        1.27401
H         -2.38097       -1.17046       -1.08029
H         -2.33948        0.53999       -1.48093
H          1.79658        0.13648        1.68668
H          2.30647        1.46483       -1.03197
H          3.09814        1.86281        0.52514
H          2.38928       -1.59158       -0.77836
H          3.19454       -1.68504        0.81941
