19
../xyz/dsC7O2H10nsd_4461.xyz
C         -2.37074       -0.99557        0.12681
C         -1.18069       -0.29988       -0.51577
O         -1.30761        1.11664       -0.26476
C         -0.02548        1.74309       -0.14324
C          0.89680        0.62823        0.26949
C          2.23329        0.02783       -0.21450
C          1.47066       -1.32377       -0.46970
C          0.18609       -0.63196        0.03293
O          0.41730       -0.15940        1.36215
H         -2.35289       -2.06678       -0.09686
H         -2.33798       -0.85686        1.20992
H         -3.30604       -0.57769       -0.25436
H         -1.16848       -0.49149       -1.60222
H          0.31594        2.16748       -1.10107
H         -0.13296        2.55692        0.58049
H          2.59780        0.48423       -1.13731
H          3.03363        0.01924        0.52775
H          1.42751       -1.58586       -1.52913
H          1.78637       -2.19487        0.10762
