19
../xyz/dsC7O2H10nsd_3538.xyz
C          2.37031        0.05222       -0.95619
C          1.52230       -0.26838        0.27969
C          0.83104        1.00472        0.84423
C         -0.56836        0.98014        0.23920
O         -1.26137        1.92250       -0.07641
C         -0.93956       -0.42537       -0.07548
O         -1.98770       -0.59748       -0.95669
C         -0.66218       -1.46025        0.99666
C          0.36610       -1.21348       -0.07225
H          3.19276        0.72929       -0.70492
H          2.80168       -0.85899       -1.38312
H          1.76575        0.53158       -1.73468
H          2.16446       -0.72651        1.04149
H          0.75079        0.98374        1.93738
H          1.34414        1.93124        0.57841
H         -2.33720        0.29591       -1.10121
H         -0.47312       -1.16184        2.02358
H         -1.26491       -2.35527        0.88744
H          0.53025       -1.98695       -0.81474
