19
../xyz/dsC7O2H10nsd_2852.xyz
C         -2.56423        0.40857       -0.06403
C         -1.23279       -0.07862       -0.62306
C         -0.74887       -1.40185       -0.00861
C          0.78381       -1.42151       -0.04492
C          0.03766       -0.71714        1.07615
C          0.00787        0.53936        0.05421
O          0.05644        1.88048        0.33861
C          1.22422       -0.10376       -0.66077
O          2.44302        0.41929       -0.15023
H         -2.74213        1.45064       -0.34520
H         -3.39426       -0.19415       -0.44775
H         -2.57813        0.34751        1.02920
H         -1.23384       -0.01368       -1.72001
H         -1.30648       -2.32631        0.07347
H          1.34038       -2.34970       -0.00361
H          0.04409       -0.84483        2.14879
H          0.99735        2.10685        0.38864
H          1.28349        0.00134       -1.74971
H          2.54779        0.07387        0.74528
