19
../xyz/dsC7O2H10nsd_4349.xyz
C          2.80781        0.62511       -0.33119
C          1.54751        0.11252        0.36184
O          1.20985       -1.12015       -0.25219
C         -0.02355       -1.64687        0.18621
C         -1.19106       -0.68744       -0.02790
O         -2.32631       -1.09414       -0.17284
C         -0.85885        0.75679        0.04273
C         -1.99494        1.72948       -0.09412
C          0.41414        1.10187        0.28802
H          3.59556       -0.12953       -0.26970
H          2.60313        0.83011       -1.38561
H          3.16318        1.54347        0.14484
H          1.78226       -0.06489        1.43110
H         -0.20859       -2.56534       -0.37491
H          0.00954       -1.90795        1.26049
H         -2.78111        1.51367        0.63619
H         -1.65431        2.75912        0.04003
H         -2.46188        1.64021       -1.08070
H          0.67750        2.14675        0.44502
