19
../xyz/dsC7O2H10nsd_3388.xyz
O         -2.68261       -1.00760       -0.13468
C         -1.49741       -0.31788       -0.40419
C         -1.15380        0.75069        0.58293
C         -0.26953        1.90423        0.11751
C          0.92717        1.23412       -0.59652
C          1.03109       -0.16050        0.02571
C          2.26667       -0.69039        0.61596
O          1.81437       -1.13921       -0.66630
C         -0.32942       -0.52876        0.54061
H         -2.56224       -1.92122       -0.41504
H         -1.29271       -0.15268       -1.46267
H         -1.86924        0.91369        1.38057
H         -0.79673        2.61250       -0.53009
H          0.07609        2.46251        0.99455
H          0.72967        1.11959       -1.66794
H          1.85463        1.80382       -0.50370
H          3.17275       -0.08438        0.60776
H          2.21533       -1.42995        1.41524
H         -0.43027       -1.29848        1.29702
