19
../xyz/dsC7O2H10nsd_1076.xyz
C          1.47783       -1.70835       -0.18051
C          1.36660       -0.23700        0.15147
O          2.25922        0.38888        0.67507
C          0.02285        0.46663       -0.17258
C          0.29547        1.80883       -0.86220
O         -0.79302       -0.36045       -1.01274
C         -2.00692       -0.71904       -0.35441
C         -1.91746       -0.07621        1.00032
C         -0.77606        0.59274        1.10625
H          2.45848       -2.07542        0.12440
H          0.69059       -2.27191        0.33155
H          1.32197       -1.86590       -1.25147
H          0.74157        1.63856       -1.84647
H         -0.63960        2.35921       -0.99308
H          0.99024        2.40085       -0.26346
H         -2.86947       -0.35967       -0.93664
H         -2.09153       -1.81550       -0.29708
H         -2.69452       -0.15994        1.74947
H         -0.41126        1.15663        1.95410
