19
../xyz/dsC7O2H10nsd_1510.xyz
C          2.68940       -0.07559        0.53442
C          1.26582       -0.12799       -0.01957
O          1.15744       -1.20333       -0.97400
C          0.18221       -0.39685        1.05076
C         -1.06834        0.40765        0.61027
C         -2.04279       -0.44756       -0.19549
O         -3.23784       -0.43790       -0.05446
C         -0.46786        1.46152       -0.29976
C          0.78796        1.17453       -0.63698
H          2.79708        0.72057        1.27760
H          2.94992       -1.03070        1.00005
H          3.41072        0.11599       -0.26882
H          1.68915       -0.97371       -1.74415
H          0.00136       -1.47078        1.14622
H          0.51726       -0.02385        2.02199
H         -1.62624        0.83610        1.44795
H         -1.54168       -1.08640       -0.95536
H         -1.04535        2.30733       -0.65584
H          1.41258        1.76107       -1.30382
