19
../xyz/dsC7O2H10nsd_4938.xyz
C         -2.55807       -0.74102        0.36200
C         -1.41553       -0.83138       -0.65051
C         -0.15231       -0.09252       -0.21555
O          0.86631       -0.31499       -1.17701
C          2.11296       -0.23946       -0.49128
C          1.73672       -0.38978        1.00571
O          0.34046       -0.66074        0.98369
C         -0.37234        1.36395       -0.04172
C         -0.53837        2.54646        0.09654
H         -3.42786       -1.29867        0.00347
H         -2.25644       -1.15910        1.32590
H         -2.86377        0.29695        0.52237
H         -1.11575       -1.87144       -0.81114
H         -1.71847       -0.42158       -1.61916
H          2.74779       -1.05040       -0.85872
H          2.61030        0.71801       -0.68683
H          2.23410       -1.22785        1.49914
H          1.94651        0.53110        1.56377
H         -0.68891        3.59128        0.21671
