19
../xyz/dsC7O2H10nsd_5460.xyz
C          3.05564        0.21425        0.35388
C          1.87566        0.10044       -0.61710
C          0.69824       -0.68743       -0.04882
C         -0.12547        0.05512        1.00716
C         -1.57885       -0.48398        0.80829
O         -1.53624       -1.46734       -0.22002
C         -0.59027       -0.61353       -0.91511
C         -1.06027        0.63783       -0.02669
O         -1.39876        1.94102       -0.25823
H          2.77082        0.74710        1.26704
H          3.42189       -0.77556        0.64808
H          3.89022        0.75703       -0.10046
H          1.53630        1.10415       -0.90418
H          2.21150       -0.39040       -1.54049
H          0.99457       -1.71442        0.19778
H          0.18411        0.49212        1.94819
H         -2.31582       -0.56159        1.59653
H         -0.58616       -0.74793       -1.99593
H         -2.27554        1.96384       -0.66024
