19
../xyz/dsC7O2H10nsd_5655.xyz
C          2.70924       -1.16579       -0.05171
C          1.79015       -0.00843       -0.44947
C          0.55346        0.10211        0.44947
O         -0.21217       -1.10539        0.37530
C         -1.50061       -0.82591       -0.02290
O         -2.32782       -1.68160       -0.16435
C         -1.59546        0.63690       -0.20674
C         -0.41559        1.19923        0.06739
C         -0.02731        2.63921        0.04021
H          3.57086       -1.22570       -0.72269
H          3.08713       -1.03781        0.96864
H          2.17235       -2.11638       -0.09499
H          2.33649        0.94131       -0.39886
H          1.45055       -0.12866       -1.48502
H          0.87671        0.22619        1.49449
H         -2.51311        1.11833       -0.51289
H          0.75273        2.82425       -0.70774
H         -0.88177        3.27804       -0.19314
H          0.38465        2.95247        1.00709
