19
../xyz/dsC7O2H10nsd_4189.xyz
O         -2.18929       -0.29325        1.05656
C         -1.71952        0.11791       -0.23138
C         -0.84384        1.38017       -0.15587
C          0.56974        1.08607        0.34372
C          1.73103        0.99901       -0.63336
C          1.16865       -0.24824        0.00736
O          1.91907       -0.84673        1.03732
C          0.32555       -1.19116       -0.77901
C         -0.99147       -1.02622       -0.90811
H         -1.44431       -0.70298        1.51061
H         -2.63135        0.35838       -0.78789
H         -0.80292        1.83110       -1.15477
H         -1.33916        2.10170        0.50019
H          0.82690        1.45650        1.33006
H          1.52707        1.18088       -1.68415
H          2.70358        1.32831       -0.28339
H          2.64309       -1.33732        0.63181
H          0.82782       -2.04941       -1.22311
H         -1.58996       -1.75254       -1.45050
