19
../xyz/dsC7O2H10nsd_4974.xyz
C          2.72672       -0.13409       -0.00474
O          1.53518       -0.76520       -0.45560
C          0.39606       -0.08721       -0.15020
C         -0.31089        0.27081        1.14936
C         -0.48896        1.72485        0.72693
C         -0.32400        1.22114       -0.73422
C         -1.59482        0.34751       -0.97539
C         -0.99778       -0.60033        0.05893
O         -1.41239       -1.86566        0.41561
H          2.71214        0.00319        1.08411
H          3.55643       -0.78895       -0.27907
H          2.86716        0.84411       -0.48427
H         -0.17086       -0.15783        2.13340
H         -1.43340        2.22603        0.96750
H          0.34935        2.34927        1.04950
H          0.05182        1.86924       -1.52258
H         -2.56648        0.81251       -0.77399
H         -1.59534       -0.09882       -1.97516
H         -1.19116       -2.46803       -0.30345
