19
../xyz/dsC7O2H10nsd_0380.xyz
C         -2.30556       -0.32556        0.38986
C         -1.98466        0.73219       -0.66202
C         -0.89294       -0.04550       -0.00431
O         -0.18800       -1.03148       -0.75438
C          1.13491       -0.98886       -0.21104
C          1.85958        0.24907       -0.77292
C          1.16394        1.36986        0.05986
C          0.18774        0.52328        0.90813
O          0.95349       -0.67304        1.15594
H         -2.65298        0.00008        1.36497
H         -2.73320       -1.25848        0.03993
H         -2.20971        0.49226       -1.69513
H         -2.11411        1.77826       -0.40121
H          1.61094       -1.96095       -0.33287
H          2.93297        0.19657       -0.57468
H          1.70461        0.34456       -1.84886
H          1.87330        1.89469        0.70308
H          0.64503        2.10557       -0.55773
H         -0.15884        0.95671        1.84471
