19
../xyz/dsC7O2H10nsd_4721.xyz
O          2.56837       -1.40105       -0.28833
C          1.33505       -1.19343        0.36952
C          0.53066       -0.00373       -0.20371
C          1.24351        1.26221       -0.07221
C          1.79642        2.31977        0.07271
C         -0.84266        0.08824        0.47723
C         -1.90708        1.00453       -0.16131
C         -2.73055       -0.29163       -0.30201
O         -1.64474       -1.08843        0.22285
H          2.38219       -1.69620       -1.18528
H          0.69342       -2.08413        0.33581
H          1.58157       -0.99068        1.41652
H          0.34721       -0.20741       -1.26953
H          2.30370        3.24551        0.18759
H         -0.70306        0.24334        1.55582
H         -2.32604        1.77375        0.48754
H         -1.59577        1.46057       -1.10269
H         -3.62034       -0.35186        0.33642
H         -3.00410       -0.59278       -1.31970
