19
../xyz/dsC7O2H10nsd_3787.xyz
C          3.00184        1.38942       -0.26647
C          2.07536        0.43927        0.45833
C          2.25266       -1.05135        0.35264
C          1.06831       -0.38288       -0.31463
C         -0.29804       -0.58602        0.23814
O         -1.16959       -1.48502       -0.43574
C         -1.50447       -0.09051       -0.47020
C         -2.70372        0.29413        0.32770
O         -3.37593        1.26916        0.10936
H          2.51671        2.35277       -0.45697
H          3.90774        1.57988        0.31906
H          3.31217        0.97562       -1.23170
H          1.73196        0.79771        1.42640
H          3.03787       -1.43078       -0.29267
H          2.06410       -1.66094        1.23032
H          1.10063       -0.30435       -1.39747
H         -0.35195       -0.65579        1.32758
H         -1.38560        0.41041       -1.42934
H         -2.92119       -0.40995        1.16281
