19
../xyz/dsC7O2H10nsd_3342.xyz
O         -0.52997        1.98921       -0.27588
C          0.50013        1.07205       -0.47229
C          1.24514        0.53553        0.72488
C          2.45545       -0.28435        0.27317
C          1.50532       -1.20287       -0.56517
C          0.29721       -0.37499       -0.10040
C         -1.01409       -0.97202        0.25607
C         -2.24686       -0.71954       -0.51048
O         -2.03248       -0.08117        0.75855
H         -1.20097        1.56648        0.28334
H          1.05777        1.31645       -1.37705
H          1.08137        0.97445        1.70252
H          3.22054        0.26665       -0.28429
H          2.94305       -0.82726        1.08545
H          1.67228       -1.23603       -1.64704
H          1.48324       -2.22907       -0.18780
H         -0.96013       -1.90918        0.81364
H         -2.20559       -0.05137       -1.36729
H         -3.04575       -1.45828       -0.51761
