19
../xyz/dsC7O2H10nsd_1237.xyz
C         -3.50569        1.17199        0.04722
C         -2.71215       -0.04061       -0.46003
O         -3.32279       -1.26844       -0.06769
C         -1.30524        0.02362       -0.04705
C         -0.16514        0.07073        0.34027
C          1.22910        0.11552        0.76187
C          2.21239       -0.18225       -0.39495
C          3.64216       -0.25765        0.09252
O          4.56615        0.34941       -0.38146
H         -3.47811        1.21720        1.14085
H         -3.08503        2.10389       -0.34160
H         -4.54644        1.08605       -0.27567
H         -2.75767       -0.05508       -1.55586
H         -3.18938       -1.36442        0.88194
H          1.45728        1.10078        1.18803
H          1.39075       -0.60981        1.57088
H          1.95526       -1.15779       -0.82902
H          2.14030        0.57025       -1.18338
H          3.79352       -0.94695        0.95796
