19
../xyz/dsC7O2H10nsd_0500.xyz
C         -2.00737        0.62932        0.12688
O         -1.86368       -0.81779       -0.03498
C         -0.43924       -0.66506       -0.07447
C          0.67524       -1.31309       -0.90190
C          1.58178       -0.56159        0.14628
C          0.44781       -0.79595        1.18057
C          1.66641        0.96699       -0.10827
O          0.40530        1.62138        0.11651
C         -0.58942        0.80687       -0.44464
H         -2.84841        1.02259       -0.44912
H         -2.10250        0.91051        1.18237
H          0.76789       -2.39659       -0.78759
H          0.74456       -1.03480       -1.95761
H          2.57089       -0.97967        0.33648
H          0.44944       -1.81689        1.56868
H          0.32455       -0.07243        1.98794
H          2.36897        1.43057        0.59003
H          2.01679        1.16708       -1.13334
H         -0.63639        0.93598       -1.53692
