19
../xyz/dsC7O2H10nsd_1145.xyz
C          2.57321        0.48970        0.38599
C          1.48816       -0.45429       -0.07537
O          1.66629       -1.30821       -0.91233
C          0.10797       -0.24584        0.56355
C         -0.88670       -1.39516        0.35733
C         -2.27116       -0.72210        0.23908
C         -1.98464        0.58525       -0.51053
C         -0.59257        1.00250       -0.04512
O         -0.11368        2.10431       -0.11977
H          2.21546        1.52096        0.29578
H          2.78745        0.31644        1.44739
H          3.48026        0.33760       -0.19992
H          0.25456       -0.00535        1.62459
H         -0.62415       -1.90880       -0.57261
H         -0.84569       -2.13441        1.16052
H         -3.00069       -1.35563       -0.27063
H         -2.67294       -0.49883        1.23433
H         -1.91625        0.40666       -1.59293
H         -2.70455        1.39217       -0.35929
