19
../xyz/dsC7O2H10nsd_2821.xyz
C          2.52605       -0.75705        0.00143
C          1.22222       -0.00857        0.00286
C          1.01134        1.52958       -0.00753
C         -0.40014        0.92552       -0.00789
O         -1.64187        1.54709       -0.09168
C         -0.00810       -0.25023       -0.95182
C         -0.62656       -1.29308        0.00560
O         -2.01684       -1.47630        0.00823
C         -0.00127       -0.25070        0.96069
H          3.12420       -0.50438        0.88391
H          2.36648       -1.84034        0.00505
H          3.12027       -0.50947       -0.88499
H          1.32544        2.07132        0.89222
H          1.32217        2.06262       -0.91239
H         -1.76022        2.10300        0.68689
H          0.00799       -0.21443       -2.04263
H         -0.17797       -2.29091        0.00476
H         -2.42034       -0.59974       -0.03748
H          0.02047       -0.21683        2.05228
