19
../xyz/dsC7O2H10nsd_4069.xyz
C         -0.63556        2.21147       -0.24274
C         -0.20700        0.77173       -0.07934
C          1.04894        0.35391       -0.89036
O          1.28690       -1.05113       -0.69507
C          1.72565       -0.13515        0.32449
C          0.51088        0.22798        1.21032
C         -0.57267       -0.87075        1.37109
C         -1.30047       -0.34695        0.08413
O         -1.51138       -1.23557       -0.97637
H         -1.10969        2.36728       -1.21944
H         -1.35804        2.49835        0.52859
H          0.21608        2.89852       -0.17225
H          1.43444        0.78655       -1.80781
H          2.77679       -0.18607        0.58564
H          0.72934        0.88862        2.04926
H         -0.21282       -1.89852        1.28975
H         -1.16569       -0.77392        2.28350
H         -2.27680        0.09200        0.31305
H         -0.65646       -1.65277       -1.14440
