19
../xyz/dsC7O2H10nsd_5262.xyz
C          2.64122        0.22960        0.29386
O          1.67872       -0.69231       -0.20390
C          0.38508       -0.24022       -0.18713
C         -0.63290       -1.32973       -0.63962
C         -1.93403       -0.82149        0.03980
C         -1.40168        0.47055        0.75048
O         -0.09442        0.04712        1.14357
C         -1.09784        1.48757       -0.34537
C          0.02037        1.05509       -0.92507
H          2.45018        0.47023        1.34444
H          3.61330       -0.25757        0.19790
H          2.64541        1.16112       -0.28728
H         -0.70169       -1.40871       -1.72599
H         -0.30878       -2.29163       -0.23742
H         -2.74447       -0.61374       -0.66255
H         -2.29770       -1.53185        0.78571
H         -1.97640        0.81248        1.61016
H         -1.74857        2.29834       -0.64553
H          0.51296        1.41480       -1.81843
