19
../xyz/dsC7O2H10nsd_1582.xyz
C          0.66082        1.88563       -0.04723
C          0.85387        0.37734       -0.06324
C          1.88041       -0.06811       -1.09322
O          1.21522       -0.09976        1.26506
C          0.05817       -0.93893        1.36430
C         -0.46494       -0.51263       -0.02501
O         -0.48465       -1.62493       -0.90153
C         -1.73312        0.20034       -0.06545
C         -2.78980        0.76968       -0.14241
H          1.61580        2.37229        0.17502
H          0.30663        2.24619       -1.01829
H         -0.06242        2.18232        0.71518
H          2.85224        0.36651       -0.83912
H          1.97261       -1.15455       -1.11184
H          1.60547        0.27425       -2.09672
H          0.30695       -2.00599        1.39613
H         -0.58052       -0.67811        2.21458
H         -0.93054       -1.35941       -1.71322
H         -3.72319        1.27415       -0.19630
