19
../xyz/dsC7O2H10nsd_1329.xyz
C         -1.03233        1.85352       -0.48440
C         -0.56922        0.41511       -0.76897
C         -1.68322       -0.59472       -0.50480
O         -1.51530       -1.72335       -0.12517
C          0.71623        0.02273       -0.06240
C          1.63822       -1.00765       -0.70024
C          2.06220        0.41944       -0.66980
C          0.68244       -0.00886        1.42145
O         -0.27270        0.27283        2.10330
H         -1.22769        1.99329        0.57981
H         -0.26762        2.57045       -0.79597
H         -1.94856        2.08072       -1.03923
H         -0.39318        0.33402       -1.85442
H         -2.70404       -0.21104       -0.73592
H          2.13637       -1.71198       -0.04287
H          1.29766       -1.43776       -1.63462
H          2.85618        0.71005        0.01011
H          2.02250        1.00109       -1.58404
H          1.64648       -0.32194        1.88711
