19
../xyz/dsC7O2H10nsd_4602.xyz
C         -1.41406        1.67267       -0.47650
C         -0.94714        0.37639        0.16926
C         -1.80511       -0.22643        1.28820
C         -1.76172       -0.88864       -0.05808
O         -2.85252       -0.78536       -0.92170
C          0.47822        0.21536        0.28256
C          1.67703        0.11272        0.37437
C          3.12583       -0.06400        0.44440
O          3.73567       -0.30035       -0.81884
H         -1.12664        2.53094        0.13798
H         -0.95891        1.79432       -1.46372
H         -2.49801        1.66918       -0.60160
H         -1.30244       -0.69927        2.12356
H         -2.70698        0.32341        1.53703
H         -1.19265       -1.81302       -0.14597
H         -3.58058       -1.28936       -0.54332
H          3.60032        0.84281        0.83653
H          3.35777       -0.87334        1.15608
H          3.22464       -0.98842       -1.25748
