19
../xyz/dsC7O2H10nsd_3048.xyz
O         -2.29223       -1.02920       -0.21590
C         -1.21411       -0.21820       -0.61551
C         -0.99286        1.07301        0.31029
C         -0.34645        0.08920        1.31784
C          0.14827       -0.58430        0.01429
C          1.44391       -1.41126        0.04320
O          2.20399       -0.15580        0.00703
C          1.03936        0.48121       -0.59917
C          0.29086        1.78303       -0.21821
H         -3.10954       -0.57431       -0.44340
H         -1.21560       -0.06281       -1.70379
H         -1.85142        1.69417        0.57444
H          0.40502        0.48527        2.00386
H         -1.07343       -0.53220        1.83901
H          1.65452       -1.99128        0.94559
H          1.64034       -2.01457       -0.85256
H          1.14030        0.39721       -1.69096
H          0.76682        2.37355        0.56913
H          0.13511        2.42890       -1.08680
