19
../xyz/dsC7O2H10nsd_4451.xyz
O         -2.61027       -0.43940        0.19123
C         -1.46380        0.14868       -0.35575
C         -1.04863        1.49365        0.25428
C          0.44030        1.62091       -0.15809
C          0.96639        0.18936       -0.07219
C          2.29987       -0.28498       -0.61684
C          2.09360       -0.24041        0.85911
C         -0.21686       -0.71193       -0.15059
O         -0.25352       -1.91485       -0.01036
H         -2.40862       -1.38468        0.26116
H         -1.57079        0.28156       -1.45085
H         -1.66125        2.32954       -0.08911
H         -1.14383        1.42580        1.34373
H          0.51409        1.99774       -1.18562
H          0.99091        2.31544        0.48128
H          2.30708       -1.25617       -1.10014
H          2.93115        0.46758       -1.07743
H          1.95027       -1.18022        1.38081
H          2.57609        0.54579        1.42964
