19
../xyz/dsC7O2H10nsd_3543.xyz
O          2.88952       -0.35602       -0.13701
C          1.57771       -0.17622        0.36193
C          1.05387        1.20312       -0.04788
C         -0.46665        1.05382       -0.04609
O         -1.27809        1.94761       -0.01004
C         -0.78330       -0.41540       -0.08085
C         -2.10256       -0.86031       -0.67079
C         -1.92893       -0.88066        0.81174
C          0.53341       -1.16099       -0.22046
H          3.21148       -1.21181        0.16420
H          1.56858       -0.25309        1.46089
H          1.38732        2.03350        0.57654
H          1.37926        1.40673       -1.07742
H         -2.72102       -0.07577       -1.09359
H         -2.10915       -1.80306       -1.20720
H         -2.43034       -0.11285        1.39047
H         -1.80300       -1.83639        1.30956
H          0.54230       -2.13267        0.28351
H          0.78172       -1.32753       -1.27624
