19
../xyz/dsC7O2H10nsd_4276.xyz
C         -1.42598        1.97142       -0.00498
C         -0.60799        0.75252        0.27128
C          0.70864        0.60582        0.38530
C          2.04400        0.97152       -0.21219
O          2.26423       -0.45079       -0.47965
C          1.16836       -0.81034        0.43485
C         -0.06200       -1.60672       -0.01442
C         -1.24269       -0.65388        0.37585
O         -2.39532       -0.81370       -0.43200
H         -2.16527        1.78163       -0.78923
H         -1.99447        2.27110        0.88529
H         -0.80006        2.81771       -0.30082
H          2.03664        1.57985       -1.12332
H          2.80141        1.35987        0.48160
H          1.59648       -1.17883        1.37659
H         -0.04294       -1.69986       -1.10689
H         -0.15444       -2.60661        0.41696
H         -1.60017       -0.86833        1.39119
H         -2.12241       -0.72271       -1.35222
