19
../xyz/dsC7O2H10nsd_2482.xyz
C         -0.63789        1.90870        0.37780
C          0.14228        0.68168       -0.01975
C          1.56590        0.86220       -0.53921
O          2.20210       -0.40412       -0.42165
C          1.62064       -1.08823        0.68660
C          0.18663       -0.60144        0.74050
C         -0.53137       -0.57819       -0.60599
C         -2.00408       -0.70225       -0.60819
O         -2.73290       -0.40410        0.31281
H         -1.62006        1.64337        0.77071
H         -0.09517        2.46630        1.14945
H         -0.78010        2.57931       -0.47722
H          1.62852        1.16809       -1.58882
H          2.07305        1.62533        0.07512
H          1.73198       -2.16158        0.50311
H          2.13720       -0.84019        1.62822
H         -0.42738       -0.75884        1.61927
H         -0.02451       -1.03891       -1.44878
H         -2.42978       -1.11193       -1.55082
