19
../xyz/dsC7O2H10nsd_1290.xyz
C          2.52432        1.13116        0.04369
C          1.58041       -0.04445        0.30030
O          2.24526       -1.29475        0.11850
C          0.31949        0.02308       -0.55412
C         -0.84302       -0.93930       -0.22335
C         -1.39378       -0.01258        0.90979
O         -2.75662        0.01809        0.39334
C         -1.90601        0.05188       -0.79007
C         -0.82779        0.98411       -0.15491
H          2.04462        2.08616        0.28169
H          3.42707        1.03313        0.65246
H          2.82443        1.16366       -1.01148
H          1.29459       -0.04619        1.35969
H          2.54522       -1.33426       -0.79668
H          0.58791        0.06038       -1.61980
H         -0.87838       -2.02718       -0.25244
H         -1.25043       -0.05211        1.98853
H         -2.37117        0.09333       -1.77463
H         -0.85475        2.07297       -0.11008
