19
../xyz/dsC7O2H10nsd_1848.xyz
C          2.19291       -0.89833        0.11592
C          0.75856       -0.41116        0.13745
C         -0.01627       -0.11548        1.46777
C         -0.80114        0.97569        0.67301
C         -1.91008        0.26833       -0.14902
O         -1.55175       -1.07622       -0.41832
C         -0.18930       -1.27169       -0.75244
C          0.43784        1.04490       -0.22119
O          0.99418        1.89898       -0.85174
H          2.58048       -0.91714       -0.90835
H          2.83922       -0.23571        0.69880
H          2.27646       -1.90964        0.52812
H         -0.60502       -0.93572        1.88071
H          0.63385        0.31602        2.23148
H         -1.16532        1.88201        1.15892
H         -2.84290        0.22183        0.42167
H         -2.10332        0.82809       -1.07758
H          0.01047       -2.33624       -0.58759
H          0.00146       -1.04916       -1.81461
