19
../xyz/dsC7O2H10nsd_4246.xyz
O          2.10716       -0.96711        0.22927
C          1.36051       -0.12691       -0.63596
C          1.11633        1.29773       -0.05049
C         -0.33620        1.19288        0.40549
O         -0.39672        0.06655        1.33905
C         -0.83928       -0.98221        0.44919
C         -2.11535       -0.38290       -0.17627
C         -1.07591        0.57320       -0.80575
C         -0.07710       -0.63565       -0.87028
H          1.67337       -0.90875        1.08974
H          1.93057       -0.09065       -1.56796
H          1.81273        1.51626        0.76292
H          1.22454        2.07569       -0.81564
H         -0.77701        2.07728        0.86888
H         -0.79277       -1.94432        0.95660
H         -2.57917       -1.03589       -0.91853
H         -2.86137        0.02011        0.51269
H         -1.28568        1.22716       -1.65131
H         -0.22672       -1.34913       -1.67957
