19
../xyz/dsC7O2H10nsd_3193.xyz
C          2.12916       -0.98169       -0.56080
C          0.86509       -0.36588       -0.04757
O          0.00729       -1.23848        0.73069
C         -0.64824        0.00653        1.13740
C          0.68683        0.80858        0.95169
C          0.51941        1.79230       -0.22034
C         -0.06771        0.56590       -0.96405
C         -1.38735        0.34525       -0.18171
O         -2.20818       -0.69933       -0.62762
H          2.74741       -0.22912       -1.05970
H          2.70727       -1.42425        0.25562
H          1.90223       -1.76814       -1.28876
H         -1.20087       -0.07681        2.07166
H          1.32458        0.96800        1.82009
H         -0.12757        2.66597       -0.10090
H          1.49136        2.11018       -0.60641
H         -0.10508        0.48840       -2.04915
H         -1.99918        1.24979       -0.13373
H         -1.71619       -1.50749       -0.42094
