19
../xyz/dsC7O2H10nsd_5020.xyz
O         -2.63298        0.42873        0.48808
C         -1.88419       -0.29194       -0.47975
C         -0.41937       -0.12849       -0.13880
C          0.18020       -0.91469        1.05266
C          1.36443       -1.05648        0.06802
O          0.42456       -0.90039       -1.04574
C          2.22629        0.18719        0.13831
C          1.57962        1.34698        0.02457
C          0.07586        1.33073       -0.15046
H         -3.56632        0.33274        0.27969
H         -2.13151       -1.36361       -0.47732
H         -2.05564        0.09075       -1.49915
H          0.35277       -0.39939        1.99808
H         -0.35001       -1.85657        1.20859
H          1.91876       -1.99482        0.00916
H          3.29943        0.11259        0.27655
H          2.09168        2.30469        0.04159
H         -0.42540        1.90263        0.63883
H         -0.20339        1.80452       -1.10197
