19
../xyz/dsC7O2H10nsd_2109.xyz
C         -2.40227       -0.63210       -0.53065
C         -0.98943       -0.38437       -0.12817
O          0.05709       -1.18285       -0.68067
C          1.02121       -0.25332       -0.09824
C          2.32121       -0.16999       -0.83390
C          0.89239       -0.53697        1.42485
C         -0.51105        0.04630        1.29854
C         -0.14856        0.83491        0.05999
O         -0.27392        2.17803       -0.17876
H         -2.51705       -0.57383       -1.61820
H         -2.73623       -1.62340       -0.20613
H         -3.05912        0.11449       -0.07452
H          2.16306        0.10786       -1.88037
H          2.97693        0.57270       -0.37000
H          2.83127       -1.13956       -0.81349
H          1.00957       -1.58336        1.72395
H          1.54600        0.10996        2.01652
H         -1.21949        0.31332        2.07265
H         -0.36136        2.31359       -1.12959
