19
../xyz/dsC7O2H10nsd_4655.xyz
C         -3.01011        0.44952       -0.02073
C         -1.61977        0.38506        0.60587
C         -0.61237       -0.34361       -0.26036
O         -0.90354       -0.91708       -1.28015
C          0.87691       -0.30355        0.21721
C          1.64580       -1.51411       -0.32584
O          0.83872       -0.30670        1.64566
C          1.44939        0.95463       -0.27862
C          1.92450        1.98965       -0.66530
H         -2.98803        0.98252       -0.97526
H         -3.39699       -0.55331       -0.21815
H         -3.70701        0.96476        0.64608
H         -1.21857        1.38299        0.82189
H         -1.63603       -0.12071        1.57871
H          1.22660       -2.42711        0.10409
H          1.55838       -1.56323       -1.41189
H          2.70214       -1.44127       -0.05242
H          1.70891       -0.04215        1.96269
H          2.34305        2.90212       -1.01317
