19
../xyz/dsC7O2H10nsd_3357.xyz
O          1.95857       -1.22986       -0.14963
C          0.57589       -0.96865       -0.14060
C          0.09457        0.12679       -1.13231
C          0.86372        1.32925       -0.53763
O          0.89866        1.05556        0.88878
C          0.11416       -0.15084        1.07938
C         -1.33871        0.19535        0.79790
C         -2.17088       -0.72711       -0.06115
C         -1.36066        0.35949       -0.72037
H          2.37816       -0.49993        0.32347
H          0.07806       -1.92742       -0.27380
H          0.29008       -0.06293       -2.18810
H          1.89223        1.39789       -0.90894
H          0.35900        2.28415       -0.71931
H          0.35840       -0.54917        2.06467
H         -1.82819        0.89991        1.45992
H         -1.92528       -1.77645       -0.17012
H         -3.23958       -0.54283       -0.02784
H         -1.88923        1.18553       -1.18441
