19
../xyz/dsC7O2H10nsd_2294.xyz
C         -1.94336       -1.15390        0.27443
C         -0.57847       -0.51752        0.12041
C          0.28876       -1.05656       -1.05128
O          1.62198       -0.60313       -0.77415
C          1.54607        0.13318        0.45673
C          0.85584        1.47644        0.16493
C         -0.58761        1.00639       -0.09611
O         -1.53312        1.68241       -0.40520
C          0.47378       -0.62626        1.25415
H         -2.46037       -0.76153        1.15493
H         -2.57047       -0.93170       -0.59420
H         -1.86503       -2.24084        0.37792
H          0.26552       -2.15472       -1.07002
H         -0.03880       -0.68697       -2.03032
H          2.54687        0.19473        0.88310
H          0.87797        2.15852        1.02258
H          1.27127        1.99884       -0.70011
H          0.76104       -1.65758        1.47426
H          0.17107       -0.12358        2.17715
