19
../xyz/dsC7O2H10nsd_0311.xyz
C          1.22123        1.46255       -0.63752
C          1.18180        0.68096        0.67304
C          1.67884       -0.74621        0.71488
O          0.97244       -1.46915       -0.30472
C         -0.15910       -0.73974       -0.75750
C         -1.54017       -1.11066       -0.14717
C         -1.98874        0.18120        0.57846
O         -1.23480        1.25157       -0.01115
C          0.00593        0.69434       -0.28009
H          1.17574        2.54167       -0.53893
H          1.83571        1.10373       -1.45914
H          1.14603        1.25290        1.59236
H          2.74946       -0.86464        0.50787
H          1.47779       -1.18040        1.70589
H         -0.17741       -0.84456       -1.84729
H         -2.24530       -1.38198       -0.93637
H         -1.44780       -1.96209        0.53035
H         -3.04749        0.41698        0.45394
H         -1.76655        0.12432        1.65366
