19
../xyz/dsC7O2H10nsd_2807.xyz
C         -3.09608        0.42555        0.00002
C         -1.58580        0.54547       -0.00009
C         -0.79993       -0.49574        0.76374
C         -0.79989       -0.49585       -0.76377
C          0.70665       -0.31933       -0.98132
O          1.27551       -1.27866        0.00009
C          0.70659       -0.31921        0.98135
C          1.17317        0.79256       -0.00004
O          2.55418        1.01421       -0.00002
H         -3.52762        0.90249        0.88628
H         -3.52800        0.90520       -0.88457
H         -3.41042       -0.62340       -0.00150
H         -1.23906        1.57273       -0.00018
H         -1.32744       -1.24691        1.34058
H         -1.32737       -1.24707       -1.34056
H          1.12011       -0.42739       -1.98392
H          1.11999       -0.42715        1.98398
H          0.69969        1.77294       -0.00011
H          2.95429        0.13345        0.00005
