19
../xyz/dsC7O2H10nsd_1711.xyz
C         -1.15799       -1.17678       -1.44392
C         -0.75620       -0.30292       -0.26165
C         -1.73179        0.85799        0.16609
C         -0.50234        1.78439        0.34919
C          0.34224        0.79334       -0.48749
C          1.77038        0.47052       -0.09693
O          2.46749       -0.27940       -0.73339
C         -0.49165       -1.13844        0.96728
O          0.43321       -0.98828        1.72700
H         -0.31171       -1.78340       -1.78203
H         -1.98097       -1.85145       -1.18124
H         -1.48831       -0.55777       -2.28335
H         -2.36326        1.15351       -0.67617
H         -2.37109        0.68161        1.03548
H         -0.59184        2.80605       -0.02370
H         -0.16423        1.81542        1.38869
H          0.34758        1.06153       -1.54889
H          2.15192        0.99890        0.80306
H         -1.26956       -1.91156        1.16397
