19
../xyz/dsC7O2H10nsd_3811.xyz
C          2.53845       -0.77527       -0.09190
C          1.10664       -0.30260       -0.04937
C         -0.03701       -1.30343       -0.18748
C         -1.27399       -0.61916        0.47969
O         -2.46799       -0.70466       -0.26577
C         -0.80666        0.82971        0.64123
O         -0.58923        1.32028       -0.73096
C          0.81505        1.10162       -0.54973
C          0.70438        0.80730        0.91663
H          2.74042       -1.49873        0.70637
H          2.76621       -1.26081       -1.04744
H          3.23872        0.05819        0.03150
H         -0.26640       -1.53920       -1.23175
H          0.21647       -2.24557        0.30892
H         -1.48891       -1.06563        1.45670
H         -2.31519       -0.16759       -1.05519
H         -1.46693        1.49315        1.20091
H          1.50115        1.70904       -1.12955
H          1.25101        1.16314        1.77892
