19
../xyz/dsC7O2H10nsd_5775.xyz
C          2.89886        0.41394       -0.04530
O          1.86238       -0.53107        0.08141
C          0.64211       -0.12352       -0.50073
C         -0.32166       -1.33913       -0.54411
C         -1.50832       -0.81132        0.31893
O         -0.80585       -0.06311        1.31731
C         -0.18246        0.85558        0.41455
C         -1.36196        1.33686       -0.42466
C         -2.19078        0.29556       -0.48744
H          2.68162        1.35469        0.48262
H          3.79526       -0.02958        0.39476
H          3.10241        0.65390       -1.10124
H          0.82998        0.31429       -1.49114
H         -0.61256       -1.63058       -1.55461
H          0.16754       -2.18159       -0.05195
H         -2.14113       -1.56971        0.77775
H          0.40018        1.59875        0.95652
H         -1.42587        2.28870       -0.93384
H         -3.10431        0.18669       -1.05601
