19
../xyz/dsC7O2H10nsd_3101.xyz
C          2.77413        0.91185       -0.40595
C          1.92110       -0.24748        0.07855
C          0.67417       -0.08997        0.99520
O          0.26581       -1.45752        0.59644
C          0.65213       -0.76766       -0.66142
C         -0.15047        0.47825       -0.19999
C         -1.66924        0.48138       -0.07103
C         -2.45221       -0.74261       -0.48928
O         -2.20635        1.48045        0.35390
H          3.43215        1.25812        0.39790
H          3.41382        0.58956       -1.23440
H          2.19138        1.76954       -0.75023
H          2.53328       -1.08824        0.41563
H          0.60364        0.17117        2.05138
H          0.57447       -1.33903       -1.58756
H          0.16711        1.45398       -0.57126
H         -3.51813       -0.56579       -0.34052
H         -2.25979       -0.96774       -1.54545
H         -2.11122       -1.60755        0.08532
