19
../xyz/dsC7O2H10nsd_2002.xyz
C         -2.65669        0.65674        0.10725
C         -1.27949        0.08263        0.05289
O         -0.88701       -0.64512       -1.12281
C         -0.75700       -1.29127        0.15239
C          0.57068       -0.80621        0.77451
C          1.84353       -0.80122       -0.08545
O          2.22257        0.56957       -0.20366
C          1.03824        1.36445       -0.25433
C          0.02776        0.65947        0.66199
H         -3.38673       -0.06112       -0.27593
H         -2.92619        0.91920        1.13545
H         -2.72275        1.56732       -0.49941
H         -1.26639       -2.24061        0.27757
H          0.72527       -1.15042        1.79809
H          2.68435       -1.32897        0.37251
H          1.64395       -1.23684       -1.07410
H          1.31083        2.36846        0.08179
H          0.65372        1.42420       -1.28195
H         -0.12273        1.15565        1.62222
