19
../xyz/dsC7O2H10nsd_3884.xyz
O          1.89651       -1.46512       -0.45299
C          1.47656       -0.42084        0.41696
C          0.08844       -0.66844        1.05883
C         -0.91462       -0.04424        0.08234
C         -1.88141       -0.87874       -0.73105
C         -2.38836        0.03126        0.36165
C         -0.16330        1.06347       -0.59503
O          0.57302        1.89115        0.32105
C          1.27845        0.86266       -0.38160
H          1.21669       -1.57602       -1.12749
H          2.26650       -0.33613        1.16783
H         -0.07480       -1.73600        1.22618
H          0.03419       -0.15831        2.02453
H         -2.07244       -0.59387       -1.76131
H         -1.89938       -1.94933       -0.55499
H         -2.92087        0.93062        0.07080
H         -2.75181       -0.42368        1.27714
H         -0.57571        1.57467       -1.46190
H          2.04680        1.18894       -1.07787
