19
../xyz/dsC7O2H10nsd_0631.xyz
C         -2.23480       -0.35292       -0.50693
C         -2.02452        0.53679        0.71525
O         -0.70928        0.18319        1.11190
C          0.02440       -0.08410       -0.07583
C          0.89165        1.13371       -0.50511
C          2.28922        0.73329       -0.11385
C          2.36200       -0.54297        0.26254
C          1.02530       -1.23346        0.20462
O         -0.93599       -0.40391       -1.08129
H         -2.57430       -1.35706       -0.21498
H         -2.93239        0.06019       -1.24114
H         -2.09196        1.60257        0.44859
H         -2.70416        0.33161        1.54536
H          0.79864        1.29358       -1.58592
H          0.54233        2.04571       -0.00790
H          3.12751        1.41915       -0.16396
H          3.26830       -1.05577        0.56444
H          0.97400       -1.96961       -0.60646
H          0.75483       -1.74662        1.13301
