19
../xyz/dsC7O2H10nsd_2891.xyz
C         -1.30338        1.79110       -0.32780
C         -0.36880        0.67046        0.05015
C          0.81340        0.92120        1.00879
C          1.59920       -0.31616        0.52806
O          1.85340        0.04115       -0.86434
C          0.45252       -0.20769       -1.03092
C          0.41806       -1.26378        0.09239
C         -0.89882       -0.68496        0.61744
O         -1.95990       -1.25347       -0.12600
H         -1.76976        2.24515        0.55529
H         -0.77144        2.58512       -0.86275
H         -2.10370        1.43049       -0.98408
H          1.37640        1.83499        0.80589
H          0.51709        0.89703        2.06213
H          2.48334       -0.65528        1.06593
H          0.10267       -0.30669       -2.05555
H          0.60351       -2.32574       -0.05167
H         -1.10184       -0.71995        1.69782
H         -2.75721       -0.74755        0.06096
