19
../xyz/dsC7O2H10nsd_4271.xyz
O         -2.42902       -0.40872       -0.27204
C         -1.09944       -0.81912       -0.03180
C         -0.53151       -0.41002        1.37592
C          0.81069        0.29143        1.06018
C          0.50607        1.65931        0.40716
C         -0.07715        1.27953       -1.00352
C         -0.03630       -0.26447       -1.02255
C          1.22680       -0.50930       -0.18516
O          2.21907       -1.13895       -0.42089
H         -2.51046        0.52339       -0.04635
H         -1.13060       -1.90830       -0.12388
H         -1.22983        0.25853        1.89168
H         -0.39199       -1.28689        2.01360
H          1.53521        0.31033        1.87244
H         -0.19943        2.24113        1.00800
H          1.41644        2.25593        0.30536
H         -1.09083        1.65820       -1.16226
H          0.53840        1.68922       -1.80795
H         -0.05230       -0.72430       -2.00858
