19
../xyz/dsC7O2H10nsd_5650.xyz
C         -3.07942       -0.05463       -0.40836
C         -1.77638       -0.82676       -0.17693
C         -0.72184       -0.06221        0.64323
C          0.53958       -0.92061        0.92360
C          1.56056       -0.53010       -0.15268
O          2.44275       -1.21726       -0.59876
C          1.20092        0.85992       -0.61055
O          0.96582        1.72927        0.51671
C         -0.16290        1.13945       -0.11717
H         -3.80628       -0.67236       -0.94403
H         -3.53418        0.24476        0.54230
H         -2.92455        0.85229       -1.00121
H         -2.00334       -1.76107        0.34994
H         -1.34112       -1.12260       -1.14128
H         -1.18111        0.27876        1.57855
H          0.97133       -0.69056        1.90269
H          0.35108       -1.99557        0.88903
H          1.65434        1.30676       -1.48904
H         -0.81784        1.83306       -0.63741
