19
../xyz/dsC7O2H10nsd_3571.xyz
O         -0.08595        2.12161       -0.76997
C         -0.50223        1.27785        0.29984
C          0.71131        0.63616        1.00233
C          1.37033       -0.42905        0.14091
O          2.55940       -0.43881       -0.07711
C          0.45495       -1.50338       -0.44966
C         -1.02066       -1.13825       -0.57205
C         -1.88328       -0.94629        0.65037
C         -1.50234        0.24788       -0.18866
H          0.28048        1.56764       -1.46848
H         -0.99026        1.96213        1.00291
H          1.45099        1.40164        1.24368
H          0.38735        0.16676        1.94030
H          0.87445       -1.76074       -1.42704
H          0.57922       -2.40288        0.17047
H         -1.51424       -1.59967       -1.42160
H         -2.91213       -1.28598        0.60907
H         -1.42416       -1.06595        1.62651
H         -2.28776        0.68513       -0.79759
