19
../xyz/dsC7O2H10nsd_0863.xyz
O         -3.08365       -0.55193        0.11091
C         -2.28853        0.34894        0.16784
C         -0.85781        0.25545       -0.33753
C         -0.26607       -1.15658       -0.23989
C          1.25700       -1.13391       -0.35396
C          2.08884       -0.73260        0.84304
C          1.98628        0.19529       -0.33558
C          1.15590        1.45697       -0.21785
O         -0.10529        1.21165        0.38788
H         -2.54373        1.34560        0.59049
H         -0.89114        0.56129       -1.40241
H         -0.57640       -1.61325        0.70601
H         -0.70209       -1.76939       -1.03330
H          1.68052       -1.90628       -0.98742
H          1.54966       -0.45196        1.74243
H          3.02752       -1.24637        1.01787
H          2.85913        0.29672       -0.97388
H          1.65125        2.20444        0.41056
H          1.00311        1.90010       -1.21708
