19
../xyz/dsC7O2H10nsd_1638.xyz
O         -1.07276        0.00000        1.51019
C         -1.25959        0.00001        0.11545
C         -2.41203       -0.76150       -0.48286
C         -2.41204        0.76153       -0.48284
C          0.08018        0.00003       -0.57144
C          1.10043        1.10569       -0.14189
C          2.15858       -0.00001       -0.01835
O          3.35315       -0.00002        0.05344
C          1.10041       -1.10567       -0.14198
H         -1.93062       -0.00044        1.94426
H         -2.26868       -1.28132       -1.42434
H         -3.09165       -1.26395        0.19885
H         -2.26871        1.28137       -1.42431
H         -3.09166        1.26394        0.19890
H         -0.07133        0.00008       -1.65324
H          1.31868        1.91725       -0.83992
H          0.85327        1.52739        0.83722
H          1.31866       -1.91718       -0.84009
H          0.85324       -1.52745        0.83709
