19
../xyz/dsC7O2H10nsd_3510.xyz
O         -0.01427        2.10764       -0.64747
C         -0.06171        1.10286        0.36719
C         -1.48942        0.72248        0.68346
C         -1.98680       -0.46184        0.33395
C         -1.16270       -1.48276       -0.39937
O          0.02387       -0.93128       -0.95082
C          0.71977       -0.13804       -0.01889
C          2.19592       -0.08138       -0.20960
C          1.61745       -0.83668        0.97311
H         -0.38717        1.70452       -1.44055
H          0.40630        1.56848        1.24168
H         -2.10357        1.47090        1.17538
H         -3.01236       -0.73766        0.56668
H         -0.92127       -2.32708        0.27069
H         -1.72437       -1.89746       -1.24408
H          2.60323       -0.67109       -1.02274
H          2.69141        0.86751       -0.03789
H          1.64960       -1.91965        0.93025
H          1.72635       -0.41732        1.96768
