19
../xyz/dsC7O2H10nsd_3089.xyz
C         -2.47635       -0.93552        0.00270
C         -0.97739       -0.67386       -0.01794
C         -0.48749        0.39549        0.99764
O         -0.94326        1.43477        0.05931
C         -0.51997        0.46475       -0.95782
C          1.01486        0.53341       -0.75460
O          1.74107       -0.71658       -0.81947
C          1.90563       -0.74470        0.61930
C          1.03753        0.51739        0.79433
H         -3.03426        0.00259        0.05480
H         -2.78878       -1.47440       -0.89800
H         -2.75219       -1.54977        0.86667
H         -0.41162       -1.60499       -0.08268
H         -0.90233        0.49354        2.00140
H         -0.94287        0.64088       -1.94705
H          1.50482        1.33246       -1.31619
H          1.53666       -1.67676        1.06426
H          2.95681       -0.60653        0.89856
H          1.47029        1.35573        1.33782
