19
../xyz/dsC7O2H10nsd_0043.xyz
C          2.91549       -1.10093        0.56166
C          2.35148       -0.24443       -0.58550
C          1.04555        0.39587       -0.26311
C          0.63418        1.68750       -0.14511
C         -0.75911        1.64742        0.18990
C         -1.10239        0.33496        0.26173
C         -2.36598       -0.40205        0.53569
O         -2.87956       -1.08836       -0.60249
O         -0.00622       -0.44145       -0.01164
H          2.21614       -1.89750        0.82994
H          3.86350       -1.56264        0.26998
H          3.09016       -0.49213        1.45387
H          3.05778        0.55049       -0.84516
H          2.24200       -0.86947       -1.48176
H          1.24904        2.56336       -0.28365
H         -1.41911        2.48546        0.35240
H         -2.21727       -1.10139        1.37394
H         -3.13401        0.31534        0.83644
H         -2.17725       -1.66314       -0.92453
