19
../xyz/dsC7O2H10nsd_4762.xyz
C          2.76352       -0.83232        0.82881
O          2.31418        0.26985        0.06328
C          0.95961        0.58554        0.22428
C          0.72677        1.95911       -0.41170
C          0.03045       -0.46290       -0.42019
O          0.44336       -1.35715       -1.12565
C         -1.37837       -0.30273       -0.11547
C         -2.54912       -0.16981        0.14864
C         -3.96247       -0.02665        0.45194
H          2.29788       -1.77071        0.50853
H          3.84323       -0.90046        0.67759
H          2.56626       -0.67890        1.90159
H          0.69185        0.63175        1.29601
H          0.99386        1.92561       -1.47165
H         -0.31842        2.26198       -0.31732
H          1.35974        2.69982        0.08236
H         -4.51295        0.31452       -0.43171
H         -4.39394       -0.98486        0.76052
H         -4.13022        0.69814        1.25514
