19
../xyz/dsC7O2H10nsd_1026.xyz
C          3.55928        0.44617       -0.23217
C          2.23906       -0.09921        0.04629
C          1.14230       -0.54217        0.27183
C         -0.18350       -1.10903        0.53889
C         -1.13690       -0.13534        1.26418
C         -1.74888        0.67671        0.10437
O         -1.04971        1.88056       -0.17854
C         -1.56264       -0.25976       -1.11163
O         -0.89710       -1.43432       -0.65583
H          4.20090        0.40344        0.65504
H          4.06048       -0.11433       -1.02904
H          3.49904        1.49329       -0.54874
H         -0.06949       -2.04900        1.08903
H         -1.91460       -0.71559        1.76992
H         -0.63673        0.49996        1.99823
H         -2.81026        0.88980        0.28977
H         -1.13298        2.46040        0.58496
H         -2.50777       -0.57525       -1.56194
H         -0.96638        0.27323       -1.86281
