19
../xyz/dsC7O2H10nsd_4915.xyz
C         -1.14440        2.37321        0.23109
C         -0.23312        1.38939       -0.51648
C         -0.41565       -0.04000       -0.03996
C          0.16035       -0.50425        1.26835
C          0.77013       -1.05682        0.01121
C          2.13244       -0.63623       -0.39760
O          2.68416        0.38011       -0.04167
C         -1.69262       -0.70697       -0.45066
O         -2.03852       -1.80813       -0.09662
H         -2.20391        2.12005        0.11406
H         -0.92175        2.37606        1.30274
H         -1.00383        3.39073       -0.14488
H         -0.44357        1.43638       -1.59319
H          0.80985        1.68453       -0.38754
H          0.76780        0.21136        1.81191
H         -0.44000       -1.18739        1.85789
H          0.48610       -2.06516       -0.26948
H          2.64495       -1.34808       -1.08026
H         -2.32360       -0.10440       -1.14065
