19
../xyz/dsC7O2H10nsd_0632.xyz
C          2.24076        0.22632       -0.47271
O          2.03365       -0.61452        0.63315
C          0.80285       -0.16665        1.17894
C         -0.03735        0.14113       -0.07448
C         -1.10395        1.24344        0.13477
C         -2.39125        0.46590        0.25406
C         -2.24447       -0.80430       -0.12255
C         -0.83502       -1.09870       -0.56706
O          0.96929        0.53369       -1.01695
H          2.74393        1.16206       -0.16947
H          2.85358       -0.30635       -1.20808
H          0.38922       -0.95683        1.80756
H          0.94944        0.74225        1.78457
H         -0.88732        1.86983        1.00851
H         -1.11563        1.91384       -0.73435
H         -3.32003        0.92227        0.57749
H         -3.03627       -1.54464       -0.15032
H         -0.42542       -2.03505       -0.17078
H         -0.76440       -1.16359       -1.66052
