19
../xyz/dsC7O2H10nsd_4837.xyz
C         -1.98153       -1.15841       -0.56624
C         -0.77111       -0.46658        0.04305
C         -1.14710        0.77850        0.83566
O         -1.75043        1.76577        0.01368
C          0.37457       -1.35634        0.38670
C          1.55500       -0.60716        1.02525
C          1.61054        0.26009       -0.26088
O          2.38787        1.08067       -0.66169
C          0.45567       -0.46201       -0.88758
H         -1.69068       -1.98893       -1.21573
H         -2.62717       -1.55663        0.22463
H         -2.56765       -0.44424       -1.14995
H         -1.90346        0.51628        1.58435
H         -0.28542        1.19042        1.37540
H         -1.08421        2.06299       -0.61593
H          0.26711       -2.43392        0.39454
H          1.40804       -0.11413        1.98915
H          2.46000       -1.22067        1.07839
H          0.34765       -0.71122       -1.93650
