19
../xyz/dsC7O2H10nsd_1590.xyz
C         -0.47118       -1.84272       -0.65878
C         -0.74361       -0.48929       -0.01507
C         -2.00240       -0.51849        0.86059
O         -0.91911        0.48392       -1.06090
C         -0.23736        1.67008       -0.70733
O          0.21556        1.52288        0.62077
C          0.44437        0.12444        0.78986
C          1.77823       -0.26866        0.32984
C          2.88353       -0.56988       -0.03399
H         -1.34178       -2.15372       -1.24297
H          0.39401       -1.78890       -1.32121
H         -0.28119       -2.60442        0.10377
H         -2.87884       -0.71037        0.23600
H         -1.93842       -1.30649        1.61832
H         -2.14061        0.44178        1.36473
H          0.60659        1.82291       -1.39892
H         -0.91004        2.53522       -0.73735
H          0.34786       -0.08538        1.85892
H          3.86137       -0.83789       -0.35100
