19
../xyz/dsC7O2H10nsd_0226.xyz
C         -0.32050        1.43699        0.66585
C          0.17379        1.03357       -0.75005
C          1.62105        0.52556       -0.58518
C          1.63379       -0.45407        0.62542
C          0.21779       -1.03859        0.70317
O         -0.11520       -1.38191       -0.65936
C         -0.78880       -0.19771       -1.04131
O         -1.80659       -0.10188       -0.06035
C         -0.88921        0.06140        1.03475
H          0.48277        1.80792        1.30561
H         -1.13024        2.16875        0.65366
H          0.08284        1.81651       -1.50395
H          1.95195        0.00823       -1.48908
H          2.30239        1.36603       -0.42172
H          2.35564       -1.25972        0.46686
H          1.91208        0.04446        1.55984
H          0.13421       -1.93069        1.32588
H         -1.20196       -0.30041       -2.04332
H         -1.40279       -0.05359        1.98795
