19
../xyz/dsC7O2H10nsd_4970.xyz
O          2.48511       -0.11620       -0.22801
C          1.54225       -1.19764       -0.16148
C          0.15364       -0.69152        0.00501
C         -1.11837       -1.14326        0.68088
C         -1.96646       -0.78959       -0.54170
C         -0.80565        0.15637       -0.94282
C         -0.78212        1.26264        0.14408
O          0.26133        2.19580       -0.03091
C         -0.43057        0.14859        1.13466
H          2.57013        0.23742        0.66439
H          1.66065       -1.74073       -1.10482
H          1.79987       -1.89146        0.65171
H         -1.24604       -1.96994        1.36994
H         -2.06189       -1.63909       -1.22352
H         -2.95049       -0.33440       -0.38134
H         -0.61652        0.42545       -1.98059
H         -1.69377        1.84932        0.29941
H          1.05409        1.69491       -0.27708
H         -0.04386        0.25826        2.14140
