19
../xyz/dsC7O2H10nsd_2910.xyz
C         -1.73094        1.50192        0.34897
C         -0.56652        0.61535       -0.02719
C          0.69420        1.29142       -0.59891
C          1.88752        0.51228       -0.06377
O          1.95344       -0.85429       -0.49406
C          1.40786       -0.57391        0.80759
C         -0.09905       -0.54080        0.86269
C         -0.82683       -0.82591       -0.42162
O         -2.11637       -1.34851       -0.26288
H         -2.08913        2.07227       -0.51736
H         -2.56544        0.90673        0.72603
H         -1.44618        2.22505        1.12171
H          0.69866        1.33171       -1.69428
H          0.75097        2.32531       -0.23735
H          2.85149        1.00186        0.05597
H          1.97885       -0.97088        1.64204
H         -0.60192       -0.77458        1.79391
H         -0.24546       -1.25610       -1.23367
H         -2.62586       -1.12111       -1.04800
