19
../xyz/dsC7O2H10nsd_1049.xyz
C          4.52664       -0.60150       -0.27342
C          3.18281       -0.11507        0.00579
C          2.07650        0.29702        0.24315
C          0.72294        0.76757        0.51116
C         -0.35393       -0.18138       -0.05430
C         -1.77293        0.33105        0.21347
O         -1.90767        1.59265       -0.42571
C         -2.78137       -0.66122       -0.35633
O         -3.25053       -1.58506        0.25443
H          4.99539       -0.03709       -1.08724
H          5.17364       -0.51159        0.60633
H          4.51548       -1.65700       -0.56746
H          0.57303        0.87559        1.59408
H          0.57294        1.76336        0.08054
H         -0.20973       -0.28974       -1.13520
H         -0.25181       -1.17539        0.39143
H         -1.93815        0.40106        1.29882
H         -2.72541        2.00356       -0.12828
H         -3.04381       -0.45239       -1.41993
