19
../xyz/dsC7O2H10nsd_5992.xyz
O          3.59874       -0.14128        0.09592
C          2.27108       -0.30274       -0.37620
C          1.36364        0.56295        0.50447
C         -0.07804        0.42392        0.15614
C         -0.96194        1.25664       -0.40331
C         -2.23041        0.38730       -0.44552
C         -2.24881       -0.21142        0.99341
C         -0.96476       -0.83074        0.36548
O         -1.69245       -0.90167       -0.90433
H          4.18315       -0.65663       -0.46747
H          2.17020        0.01491       -1.42498
H          1.95114       -1.35542       -0.32163
H          1.53814        0.26784        1.54793
H          1.68095        1.60681        0.41193
H         -0.85192        2.27745       -0.73943
H         -3.11663        0.72698       -0.97948
H         -2.14835        0.46374        1.84579
H         -3.04376       -0.94719        1.13747
H         -0.51784       -1.77034        0.69018
