19
../xyz/dsC7O2H10nsd_5361.xyz
O          2.94398       -0.33177        0.38830
C          2.08141        0.14098       -0.64456
C          0.67168        0.30010       -0.17696
C         -0.15185        1.35095       -0.30140
C         -1.50546        0.89668        0.22106
C         -1.08342       -0.01896        1.38035
C         -0.14467       -0.82776        0.44623
C         -1.19206       -1.21808       -0.63974
O         -2.03879       -0.06609       -0.73725
H          2.90256        0.30690        1.10791
H          2.44495        1.08584       -1.07567
H          2.14348       -0.61944       -1.43296
H          0.05074        2.29126       -0.79977
H         -2.26938        1.65296        0.39196
H         -0.54782        0.49831        2.17776
H         -1.91694       -0.59742        1.78845
H          0.41948       -1.65879        0.86616
H         -0.73384       -1.43468       -1.61200
H         -1.78860       -2.08550       -0.33011
