19
../xyz/dsC7O2H10nsd_3656.xyz
C         -2.90503       -0.49364       -0.26709
C         -1.45434       -0.92897       -0.28593
C         -0.64975       -1.06290        0.96012
C         -0.26952        0.02471       -0.05114
C          0.99023       -0.16878       -0.89196
C          2.24072       -0.05588       -0.03973
O          2.95979       -0.98851        0.21850
C         -0.55031        1.42381        0.34749
O          0.13057        2.36968        0.02417
H         -3.17730        0.04003       -1.18343
H         -3.55127       -1.37445       -0.18966
H         -3.13774        0.15347        0.58216
H         -1.23153       -1.65623       -1.06235
H         -1.10010       -0.73509        1.89248
H          0.05440       -1.88106        1.06444
H          0.99282       -1.15548       -1.36197
H          1.01787        0.60604       -1.66674
H          2.44232        0.95936        0.36125
H         -1.44443        1.56400        0.99204
