19
../xyz/dsC7O2H10nsd_0437.xyz
C          2.25652       -0.73930       -0.66794
O          2.36496        0.57257       -0.10776
C          1.48749       -0.36169        0.52706
C          0.03031       -0.04709        0.46708
C         -0.45832        1.33982        0.86670
C         -0.56739        0.87041       -0.56304
O         -1.78859        0.36162       -1.02787
C         -2.23882       -0.61694       -0.09230
C         -0.97944       -1.18064        0.60738
H          1.75069       -0.79167       -1.63055
H          3.14439       -1.36185       -0.56893
H          1.85490       -0.71517        1.49297
H         -1.35350        1.43979        1.47131
H          0.31158        2.07726        1.06668
H          0.00941        1.35248       -1.34226
H         -2.91427       -0.15643        0.64179
H         -2.80685       -1.37244       -0.64168
H         -1.18884       -1.46741        1.64257
H         -0.60064       -2.06546        0.08353
