19
../xyz/dsC7O2H10nsd_1459.xyz
C         -0.03639        1.64672        1.08190
C          0.51110        0.67776        0.03244
C          1.13342        1.41296       -1.14909
C          1.39281       -0.42059        0.67377
O          1.71096       -1.38546       -0.33081
C          0.44089       -1.47999        0.31966
C         -0.50829       -0.49377       -0.39120
C         -1.89111       -0.38526        0.18605
O         -2.88063       -0.15845       -0.46502
H         -0.86131        2.24310        0.67941
H         -0.39624        1.13280        1.97901
H          0.75353        2.33821        1.39471
H          0.37759        1.99535       -1.68666
H          1.90960        2.10746       -0.80703
H          1.58729        0.70557       -1.84693
H          2.07938       -0.32523        1.50855
H          0.20122       -2.41831        0.80677
H         -0.58578       -0.64216       -1.47036
H         -1.96264       -0.53251        1.28802
