19
../xyz/dsC7O2H10nsd_4839.xyz
C         -2.06838        1.58516       -0.01670
C         -1.28707        0.58343        0.84127
C         -0.70033       -0.54847        0.02539
O         -1.74847       -1.26773       -0.56703
C          0.51548       -1.33166        0.36028
C          1.60828       -0.48656        1.02772
C          1.60520        0.41373       -0.23917
O          2.31299        1.31143       -0.60085
C          0.53022       -0.38606       -0.89798
H         -2.49953        2.37341        0.60697
H         -1.41407        2.05914       -0.75526
H         -2.88018        1.08729       -0.55208
H         -0.48891        1.10158        1.37947
H         -1.94708        0.14049        1.59698
H         -1.39057       -2.03674       -1.02337
H          0.50426       -2.41599        0.35616
H          1.39371       -0.02983        1.99689
H          2.56445       -1.01563        1.08918
H          0.42135       -0.59068       -1.95678
