19
../xyz/dsC7O2H10nsd_5312.xyz
C         -0.16861        2.39418        0.01168
C         -0.36332        0.92157       -0.17169
C          0.54814       -0.04690       -0.37354
C          2.04191        0.07275       -0.37204
O          2.63712       -0.69411        0.67554
C         -0.09946       -1.41604       -0.52695
C         -1.57629       -1.13812       -0.29779
O         -1.88268       -0.61590        0.99751
C         -1.73193        0.31128       -0.10469
H          0.88005        2.69231       -0.05521
H         -0.72268        2.95865       -0.74918
H         -0.55553        2.72165        0.98475
H          2.45987       -0.34404       -1.29670
H          2.35409        1.12536       -0.32107
H          2.23781       -0.40125        1.50196
H          0.07304       -1.82894       -1.53033
H          0.30552       -2.14033        0.18788
H         -2.34302       -1.76892       -0.73932
H         -2.62733        0.87322       -0.35705
