19
../xyz/dsC7O2H10nsd_4081.xyz
C         -2.40902        0.28708       -0.31649
C         -1.25100       -0.46011        0.31425
O         -0.51872       -1.16763       -0.70746
C          0.79902       -1.33870       -0.25097
C          1.72501       -0.14087       -0.32101
C          1.11071        1.17456       -0.77446
O          0.15486        1.54787        0.22298
C         -0.17557        0.40475        1.00575
C          1.05097       -0.51985        0.97868
H         -3.02760        0.74688        0.46084
H         -2.04181        1.07564       -0.97596
H         -3.03514       -0.39984       -0.89204
H         -1.62458       -1.19335        1.04879
H          1.19179       -2.34014       -0.39125
H          2.78513       -0.31028       -0.47043
H          1.86259        1.96838       -0.83999
H          0.61758        1.07442       -1.75016
H         -0.47722        0.74746        1.99809
H          1.55941       -0.85226        1.87347
