19
../xyz/dsC7O2H10nsd_2921.xyz
C          2.60669       -0.15078       -0.07306
C          1.18692       -0.60046        0.24819
C          0.39855        0.40088        1.09758
C         -1.09940        0.11714        0.93076
O         -1.51111       -1.16596        0.51026
C         -0.99612       -1.34423       -0.82065
C          0.16216       -0.35333       -0.91412
C         -0.37956        0.88050       -0.11973
O         -0.60843        2.16110       -0.57489
H          3.06929       -0.81151       -0.81454
H          2.61437        0.86841       -0.47510
H          3.23616       -0.16037        0.82352
H          1.18712       -1.62914        0.62830
H          0.77163        0.96640        1.94515
H         -1.78573        0.60157        1.61543
H         -0.69285       -2.39077       -0.92707
H         -1.77868       -1.12626       -1.56568
H          0.57486       -0.19433       -1.91030
H         -1.51533        2.21659       -0.89641
