19
../xyz/dsC7O2H10nsd_0594.xyz
C          1.47674        0.09493       -0.95667
C          1.02133        1.39148       -0.27529
C         -0.25052        1.16944        0.56604
C         -1.55503        0.96594       -0.22994
C         -1.71971       -0.45762       -0.69275
C         -0.89997       -1.42112       -0.28230
C          0.24278       -1.11139        0.65834
O          1.47505       -0.99498       -0.03774
O         -0.02518        0.04273        1.42293
H          0.84001       -0.13306       -1.82265
H          2.50722        0.18198       -1.31146
H          1.80909        1.72580        0.40801
H          0.86732        2.17999       -1.02033
H         -0.37701        2.02129        1.24009
H         -2.41422        1.24130        0.39745
H         -1.58145        1.65135       -1.08668
H         -2.54863       -0.67577       -1.36184
H         -0.99416       -2.44596       -0.62685
H          0.39914       -1.91890        1.37815
