19
../xyz/dsC7O2H10nsd_6051.xyz
C         -3.40260        0.02283       -0.29563
O         -2.17665       -0.31868        0.30727
C         -1.09194        0.43162       -0.19567
C          0.17715       -0.02149        0.51358
C          0.60155       -1.47650        0.22875
C          2.02650       -1.36140       -0.24988
C          2.45887       -0.09695       -0.32702
C          1.38657        0.83548        0.08417
O          1.42018        2.04537        0.08094
H         -3.38852       -0.15890       -1.38218
H         -4.17562       -0.60300        0.15690
H         -3.65857        1.08094       -0.12984
H         -0.99430        0.28185       -1.28594
H         -1.23860        1.50901       -0.02540
H          0.02690        0.13339        1.58815
H          0.52885       -2.12047        1.11240
H         -0.03327       -1.94625       -0.53287
H          2.61504       -2.23670       -0.50570
H          3.43330        0.24498       -0.65104
