19
../xyz/dsC7O2H10nsd_3445.xyz
C         -0.72419        1.71230       -0.64233
C         -0.58060        0.82528        0.59694
C          0.86493        0.31041        0.79731
O          1.99483        0.75044       -0.03668
C          2.24353       -0.62571       -0.46660
C          0.88737       -0.99375        0.07534
C         -0.31998       -1.46174       -0.20600
C         -1.35704       -0.53830        0.45252
O         -2.52107       -0.35350       -0.33676
H         -1.76936        1.98669       -0.79409
H         -0.12960        2.62162       -0.52172
H         -0.37250        1.20034       -1.54151
H         -0.93878        1.37218        1.47532
H          1.17565        0.32269        1.85029
H          2.38951       -0.71413       -1.54841
H          3.11003       -1.04825        0.05868
H         -0.60035       -2.26870       -0.87287
H         -1.64602       -0.90217        1.45178
H         -3.09281       -1.11662       -0.21304
