19
../xyz/dsC7O2H10nsd_3979.xyz
O         -2.66208        0.38150        0.70818
C         -1.79238        0.00880       -0.32387
C         -0.97449       -1.34495       -0.25289
C          0.24385       -0.59624       -0.88343
C          1.64954       -0.46056       -0.22812
O          1.74289       -1.07449        1.04605
C          1.81490        1.09274       -0.12126
C          0.37829        1.58496        0.04896
C         -0.44559        0.67982       -0.47645
H         -2.13896        0.46725        1.51292
H         -2.38610        0.03924       -1.24354
H         -0.77510       -1.63117        0.78346
H         -1.38742       -2.19944       -0.79279
H          0.31777       -0.76188       -1.96329
H          2.43913       -0.92500       -0.82476
H          1.17391       -0.58028        1.64729
H          2.46806        1.34918        0.72008
H          2.28611        1.50374       -1.02455
H          0.11136        2.49493        0.57366
