19
../xyz/dsC7O2H10nsd_4566.xyz
C          0.52669        1.95430        0.49933
C          0.36597        0.47467        0.16179
O         -0.13980       -0.20143        1.32380
C         -0.61093       -1.48822        0.90326
C         -1.01467       -1.33996       -0.58706
C         -0.74336        0.14848       -0.88442
O         -1.88918        0.95328       -0.68361
C          1.65152       -0.10148       -0.26716
C          2.69273       -0.58052       -0.63099
H         -0.43824        2.38675        0.76605
H          1.21971        2.06878        1.33564
H          0.92619        2.49390       -0.36284
H          0.18098       -2.23666        1.02756
H         -1.44341       -1.75586        1.55943
H         -0.40366       -1.98214       -1.22467
H         -2.06502       -1.57075       -0.77462
H         -0.41663        0.33191       -1.90922
H         -2.15385        0.84310        0.23796
H          3.61792       -0.99742       -0.94520
