19
../xyz/dsC7O2H10nsd_3808.xyz
C         -2.84982       -0.09973       -0.09679
C         -1.45175       -0.54049        0.32086
C         -0.63834        0.51884        1.13496
C          0.40603        0.63052       -0.02772
C          0.83937        1.98909       -0.52568
C         -0.38608       -0.46577       -0.79626
O          0.70583       -1.41576       -0.57524
C          1.46079       -0.47077        0.08454
O          2.55366       -0.60132        0.53516
H         -3.50424       -0.00238        0.77531
H         -2.82848        0.87229       -0.60339
H         -3.30414       -0.82337       -0.78185
H         -1.48429       -1.53171        0.78014
H         -1.18860        1.45338        1.27465
H         -0.23835        0.20468        2.10095
H          1.40857        1.91363       -1.45756
H         -0.02406        2.63844       -0.70143
H          1.48090        2.47413        0.21762
H         -0.67444       -0.43261       -1.84728
