19
../xyz/dsC7O2H10nsd_3236.xyz
C          1.88241       -1.19941       -0.57641
C          0.64706       -0.52197       -0.03572
C          0.36127       -0.37002        1.48633
C         -1.10619       -0.23386        1.05020
C         -1.20098        0.77843       -0.15789
O         -1.61155       -0.29464       -1.05899
C         -0.83864       -1.12332       -0.17733
C          0.28266        0.90218       -0.54773
O          0.91369        1.98470        0.10486
H          2.78937       -0.62996       -0.33464
H          2.01020       -2.20155       -0.15330
H          1.83453       -1.29896       -1.66678
H          0.51699       -1.30881        2.02684
H          0.84590        0.45497        2.00906
H         -1.97053       -0.33973        1.70243
H         -1.83833        1.66081       -0.17952
H         -0.99382       -2.19811       -0.27028
H          0.37175        0.98540       -1.63822
H          1.85130        1.96321       -0.11133
