19
../xyz/dsC7O2H10nsd_5508.xyz
C         -3.11022       -1.07602        0.13691
O         -2.49374        0.13745       -0.25213
C         -1.24902        0.32922        0.33334
C         -0.35036        1.22938       -0.44548
C          0.92891        1.50396        0.34324
C          1.21777       -0.04642        0.41959
C          2.46665       -0.42292       -0.33014
O          3.34432       -1.12886        0.09536
C         -0.07057       -0.28252       -0.38879
H         -3.26766       -1.11614        1.22495
H         -4.08036       -1.11642       -0.36293
H         -2.51360       -1.94995       -0.15985
H         -1.26176        0.36079        1.42791
H         -0.74543        1.82028       -1.26193
H          1.68737        2.02806       -0.24419
H          0.81797        2.01342        1.30509
H          1.25239       -0.49384        1.41699
H          2.52701        0.01665       -1.35478
H         -0.21950       -1.03961       -1.14919
