19
../xyz/dsC7O2H10nsd_5278.xyz
O          2.72719       -0.38926       -0.27830
C          1.76107        0.03885        0.67441
C          0.37115        0.10482        0.08922
C         -0.01499        1.28799       -0.85541
C         -1.26225        1.59146        0.03328
C         -0.89125        0.40557        0.97083
C         -1.43695       -0.98971        0.58262
O         -1.54743       -1.04559       -0.84495
C         -0.25968       -1.26905       -0.26070
H          2.72390        0.24657       -1.00155
H          1.79750       -0.70159        1.48249
H          2.03281        1.01270        1.11280
H          0.72616        2.09366       -0.85958
H         -0.23966        1.00448       -1.88476
H         -1.21854        2.56122        0.53382
H         -2.22441        1.49470       -0.47165
H         -0.79840        0.58661        2.04257
H         -2.08889       -1.64809        1.14620
H          0.24879       -2.19107       -0.51976
