19
../xyz/dsC7O2H10nsd_4039.xyz
C          2.63797       -0.35468       -0.30697
C          1.22307        0.10149       -0.65984
C          0.76371        1.40417        0.06761
C         -0.71254        1.16374        0.37529
C         -1.03865       -0.08265        1.21129
O          0.07583       -0.97625        1.19998
C          0.12656       -0.88884       -0.26588
C         -1.20941       -0.09667       -0.27662
O         -2.26276       -0.16615       -1.15764
H          2.91901       -1.25415       -0.86545
H          3.37274        0.42313       -0.53869
H          2.70522       -0.58229        0.76108
H          1.14497        0.25192       -1.74576
H          1.34253        1.55886        0.98407
H          0.90366        2.28854       -0.56050
H         -1.41162        1.98657        0.47991
H         -1.71046       -0.10427        2.06114
H          0.17022       -1.88101       -0.72261
H         -2.68508       -1.02746       -1.06126
