19
../xyz/dsC7O2H10nsd_0438.xyz
C         -2.57857        0.32841        0.46909
O         -2.31388       -0.62914       -0.55916
C         -1.45337        0.50270       -0.46056
C         -0.04235        0.24314       -0.03889
C          1.00551        1.34333       -0.11613
C          2.34282        0.60383        0.13745
C          2.11679       -0.84609       -0.35945
C          0.62821       -1.05904       -0.18516
O          0.13299       -0.61974        1.09329
H         -3.48518        0.91718        0.33786
H         -2.36664       -0.01457        1.47870
H         -1.55726        1.22323       -1.27355
H          0.97724        1.78792       -1.11908
H          0.82935        2.14872        0.60396
H          3.18778        1.09026       -0.35521
H          2.54963        0.59102        1.20932
H          2.36450       -0.95294       -1.42302
H          2.71807       -1.57633        0.19089
H          0.11534       -1.92117       -0.60087
