19
../xyz/dsC7O2H10nsd_4941.xyz
O          1.80510       -1.70504       -0.27757
C          0.95718       -1.17814        0.71050
C          0.20092        0.07091        0.21518
C         -0.96596        0.46525        1.17046
C         -2.22327       -0.02466        0.43073
C         -1.78387        0.08066       -1.02902
O         -0.42069       -0.32982       -1.02848
C          1.11563        1.18935       -0.02866
C          1.85580        2.11997       -0.20314
H          1.27132       -1.76206       -1.08001
H          0.20095       -1.91240        1.03611
H          1.57788       -0.91880        1.57369
H         -0.84229        0.00833        2.15576
H         -0.98777        1.54844        1.30418
H         -2.44209       -1.06748        0.68056
H         -3.10873        0.57392        0.65795
H         -2.32872       -0.57776       -1.71074
H         -1.87393        1.11444       -1.39608
H          2.51954        2.93224       -0.36928
