19
../xyz/dsC7O2H10nsd_0942.xyz
O          2.38163        0.55360       -0.64196
C          2.25095       -0.23906        0.25213
O          1.14692       -0.93773        0.53928
C          0.02549       -0.75906       -0.34580
C         -1.12416       -1.74569       -0.06330
C         -2.13150       -0.56053       -0.17351
C         -0.93749        0.40136       -0.07430
C         -0.81487        1.83151       -0.50129
C         -0.74614        1.46734        0.96395
H          3.03792       -0.50783        0.97431
H          0.39384       -0.77342       -1.37426
H         -1.24087       -2.58113       -0.75574
H         -1.05391       -2.13012        0.95652
H         -2.63271       -0.52002       -1.14506
H         -2.88685       -0.49070        0.61278
H          0.10732        2.12613       -0.98963
H         -1.70731        2.33160       -0.86420
H          0.21507        1.53467        1.46248
H         -1.59450        1.70871        1.59682
