19
../xyz/dsC7O2H10nsd_3469.xyz
C          0.06439        2.07174       -0.33748
C         -0.22027        0.70702        0.28296
C         -1.46581       -0.02532       -0.29703
O         -2.66345        0.19802        0.43451
C         -1.03460       -1.47492       -0.35805
C          0.26689       -1.62753       -0.11534
C          0.91761       -0.31550        0.14630
C          2.24935       -0.15448        0.74078
O          2.06301        0.02134       -0.66434
H         -0.80121        2.72914       -0.21144
H          0.92835        2.55457        0.12902
H          0.27903        1.97903       -1.40571
H         -0.42060        0.83573        1.35553
H         -1.69742        0.34481       -1.30416
H         -2.54355       -0.18615        1.31050
H         -1.73758       -2.26461       -0.59928
H          0.82542       -2.55620       -0.14155
H          2.47771        0.75362        1.29979
H          2.82797       -1.03088        1.03312
