19
../xyz/dsC7O2H10nsd_5629.xyz
C          2.90451       -0.66796       -0.13075
O          1.99437        0.39705       -0.28276
C          0.77513        0.21172        0.42220
C          0.06182        1.54048        0.52059
C         -1.11268        1.55285       -0.10909
C         -1.42686        0.22424       -0.73602
O         -2.36825       -0.58056        0.03035
C         -1.30432       -1.42117        0.52161
C         -0.24166       -0.68255       -0.32048
H          2.51293       -1.61623       -0.53022
H          3.80739       -0.40397       -0.68668
H          3.17058       -0.82741        0.92624
H          1.00364       -0.19506        1.42323
H          0.50727        2.37501        1.05044
H         -1.79106        2.39728       -0.15753
H         -1.73508        0.28154       -1.78547
H         -1.17743       -1.33725        1.60982
H         -1.47109       -2.47351        0.26368
H          0.22816       -1.27796       -1.10259
