19
../xyz/dsC7O2H10nsd_5396.xyz
C          2.26884       -1.15517       -0.70811
C          1.20697       -0.33186       -0.03858
C          1.38907        0.35039        1.27191
C          1.10630        1.22302        0.04706
C         -0.35252        1.11702       -0.25900
O         -1.24783        1.90216       -0.43686
C         -0.30034       -0.42227       -0.37708
C         -1.31582       -1.21561        0.44223
O         -2.62991       -0.90858        0.01235
H          2.14276       -1.15802       -1.79611
H          3.26842       -0.77005       -0.48290
H          2.23245       -2.19617       -0.36665
H          0.65816        0.27547        2.07067
H          2.41336        0.42838        1.62454
H          1.79602        2.00014       -0.25872
H         -0.43878       -0.66819       -1.43813
H         -1.18132       -2.29377        0.29982
H         -1.18722       -1.01305        1.51751
H         -2.69688        0.05355       -0.04457
