19
../xyz/dsC7O2H10nsd_1674.xyz
C          0.81802        1.58792       -0.00081
C          0.54362        0.08082        0.00015
C         -0.30953       -0.36663       -1.23566
C         -1.73528       -0.45143       -0.73246
O         -2.16403        0.70563       -0.00065
C         -1.73545       -0.45047        0.73281
C         -0.30982       -0.36496        1.23621
C          1.84831       -0.70100        0.00065
O          2.95201       -0.22446       -0.00015
H         -0.12353        2.13894       -0.00092
H          1.40080        1.87380        0.87940
H          1.40036        1.87283       -0.88164
H         -0.18986        0.32887       -2.07134
H         -0.00780       -1.36086       -1.59264
H         -2.50412       -0.93685       -1.32860
H         -2.50441       -0.93510        1.32942
H         -0.19049        0.33167        2.07101
H         -0.00812       -1.35866        1.59472
H          1.70410       -1.80955        0.00177
