19
../xyz/dsC7O2H10nsd_5354.xyz
C         -0.25576        1.99728        0.09720
C          0.22639        0.76604       -0.68724
C          1.69191        0.42465       -0.41041
O          1.96487        0.09041        0.95284
C          1.77462       -0.98551       -0.00043
C          0.37907       -1.51041       -0.01626
C         -0.48713       -0.54683       -0.35733
C         -1.97929       -0.70083       -0.40224
O         -2.64952        0.02965        0.62447
H          0.26661        2.89621       -0.24613
H         -1.32986        2.14908       -0.01979
H         -0.04296        1.86443        1.16145
H          0.10696        0.96788       -1.76239
H          2.49035        0.94949       -0.92928
H          2.64176       -1.61943       -0.15685
H          0.11671       -2.53197        0.23483
H         -2.38028       -0.30225       -1.34173
H         -2.23837       -1.76966       -0.36109
H         -2.25264       -0.23060        1.46283
