19
../xyz/dsC7O2H10nsd_3546.xyz
C          1.74361        1.69281        0.23196
C          0.63864        0.87856       -0.44503
C         -0.79512        1.31117       -0.04892
C         -1.63423        0.03061       -0.07334
O         -2.81385       -0.06164       -0.29859
C         -0.68309       -1.11614        0.14178
O          0.22530       -0.85525        1.23342
C          0.68856       -0.61649       -0.09946
C          1.81255       -1.48789       -0.58886
H          1.63311        2.75857        0.00984
H          1.69820        1.56503        1.31824
H          2.73829        1.38582       -0.10645
H          0.74357        0.96465       -1.53461
H         -0.81085        1.71424        0.97010
H         -1.22916        2.06407       -0.70925
H         -1.00011       -2.14545        0.00531
H          2.77426       -1.13383       -0.20333
H          1.67273       -2.51858       -0.25486
H          1.86275       -1.47532       -1.68244
