19
../xyz/dsC7O2H10nsd_3074.xyz
C         -2.02948        1.03467        0.38089
C         -0.95761        0.00470        0.17847
O         -1.35513       -1.25335       -0.39857
C         -0.37016       -0.46498       -1.08873
C          1.09734       -0.72028       -0.68334
C          0.93900       -1.41795        0.69517
C          0.28022       -0.07572        1.10842
C          1.36383        0.58072        0.16673
O          1.19815        1.85994       -0.37446
H         -2.61758        0.80916        1.27744
H         -1.58891        2.02809        0.52044
H         -2.71060        1.06091       -0.47375
H         -0.65313       -0.12310       -2.07985
H          1.79044       -1.07212       -1.44645
H          0.32203       -2.31123        0.73540
H          1.89936       -1.57703        1.18792
H          0.15511        0.22528        2.14838
H          2.35560        0.57622        0.62486
H          0.36459        1.88406       -0.85572
