19
../xyz/dsC7O2H10nsd_5184.xyz
C          2.66291       -0.35981        0.11133
O          1.70331        0.66812       -0.10229
C          0.39593        0.26909       -0.09672
C         -0.61744        1.41228       -0.31483
C         -1.85363        0.56826       -0.04753
C         -1.53386       -0.85443       -0.52912
C         -0.11453       -0.83387       -1.07082
C         -1.37322       -0.48257        0.92881
O         -0.00560       -0.26076        1.19413
H          2.70146       -1.05847       -0.73436
H          3.63018        0.13776        0.20234
H          2.44947       -0.91527        1.03000
H         -0.46772        2.21088        0.41579
H         -0.56346        1.82077       -1.32684
H         -2.85906        0.96601       -0.03600
H         -2.29727       -1.53599       -0.87928
H          0.40248       -1.78673       -0.93230
H         -0.03621       -0.51999       -2.11495
H         -1.93846       -0.89154        1.75415
