19
../xyz/dsC7O2H10nsd_4008.xyz
C         -3.15221        0.50915       -0.37266
C         -1.86897       -0.28649       -0.48257
O         -1.55175       -0.95677        0.78626
C         -0.39056       -0.15549        0.91655
C         -0.57437        0.52272       -0.39470
C          0.59776       -0.43935       -0.21420
C          1.93210        0.19733       -0.04247
C          3.13365       -0.64260       -0.43094
O          2.04567        1.32252        0.40454
H         -3.99257       -0.15991       -0.16605
H         -3.08530        1.24418        0.43439
H         -3.35301        1.03607       -1.31188
H         -1.92443       -1.01783       -1.29842
H         -0.07818        0.18872        1.89445
H         -0.41419        1.55320       -0.67891
H          0.55975       -1.42185       -0.67632
H          3.08490       -0.90206       -1.49493
H          4.05250       -0.09142       -0.22848
H          3.13483       -1.58672        0.12566
