19
../xyz/dsC7O2H10nsd_2746.xyz
C          2.32282       -1.08036        0.03631
C          0.81572       -0.98314        0.02520
C          0.05809        0.11367        0.73753
C         -1.37330       -0.01961        1.19410
C         -2.07716       -0.56832       -0.09075
O         -1.25845       -0.21841       -1.22806
C          0.02299        0.04837       -0.75744
C          0.64274        1.44523       -0.70519
O          0.77107        1.36874        0.74673
H          2.69381       -1.53936       -0.88546
H          2.77745       -0.09299        0.14356
H          2.66122       -1.69155        0.87957
H          0.29530       -1.93737        0.05766
H         -1.54151       -0.67871        2.05028
H         -1.74314        0.97716        1.45015
H         -2.17769       -1.66037       -0.03791
H         -3.07418       -0.14666       -0.24833
H          1.60736        1.61083       -1.19693
H         -0.07093        2.22138       -1.00050
