19
../xyz/dsC7O2H10nsd_0572.xyz
C         -2.31951        0.03195        0.27883
C         -1.31684        1.20421        0.38476
C         -0.00904        0.53527        0.02933
C          1.29002        1.21687       -0.32912
O          2.25370        0.16970       -0.39679
C          1.89265       -0.84687        0.53925
C          0.37810       -0.80859        0.64501
C         -0.37077       -0.74875       -0.66258
O         -1.76412       -0.91685       -0.63627
H         -2.46340       -0.43580        1.26275
H         -3.30145        0.32841       -0.09973
H         -1.54329        1.98707       -0.34862
H         -1.33520        1.66061        1.37936
H          1.28201        1.71426       -1.30552
H          1.56073        1.96387        0.43637
H          2.29603       -1.78990        0.15501
H          2.34231       -0.65644        1.52731
H         -0.09853       -1.20657        1.53400
H          0.07647       -1.09293       -1.58932
