19
../xyz/dsC7O2H10nsd_5387.xyz
O          2.55310       -0.27056       -0.53140
C          1.73375       -0.78994        0.51477
C          0.26778       -0.67895        0.22527
C         -0.60390       -1.68133        0.10473
C         -1.97745       -1.14023       -0.17010
O         -1.80860        0.27347       -0.24480
C         -0.45881        0.60428        0.02967
C         -0.20319        1.85636        0.83219
C          0.10089        1.82266       -0.65366
H          2.29457       -0.71750       -1.34473
H          1.98361       -1.83848        0.73284
H          1.99850       -0.20205        1.40112
H         -0.38642       -2.73762        0.20548
H         -2.40119       -1.51202       -1.11618
H         -2.69531       -1.39481        0.62689
H         -1.08635        2.39882        1.15024
H          0.62403        1.87747        1.53385
H         -0.57970        2.35210       -1.31124
H          1.13774        1.79376       -0.96585
