19
../xyz/dsC7O2H10nsd_3668.xyz
C          2.49421        0.83956        0.45870
C          1.61125        0.11332       -0.52208
O          1.39323       -1.30130       -0.27049
C          0.30673       -0.43353       -0.16836
C         -0.72119       -0.35296        0.97549
O         -1.39895       -1.51919        0.35496
C         -1.09014       -0.61808       -0.78462
C         -1.60724        0.56792        0.08359
C         -1.27457        2.02156       -0.20628
H          2.23702        0.57138        1.48650
H          3.54550        0.58532        0.28919
H          2.38877        1.92383        0.34178
H          1.79759        0.33509       -1.57453
H         -0.58517       -0.36444        2.05673
H         -1.38728       -0.94246       -1.78173
H         -2.66153        0.41791        0.32711
H         -0.21967        2.17376       -0.44567
H         -1.86678        2.38768       -1.05164
H         -1.51701        2.64913        0.65785
