19
../xyz/dsC7O2H10nsd_1063.xyz
C          2.52078        0.78905       -0.48748
C          1.52903       -0.29760       -0.14488
O          1.82018       -1.47222       -0.12667
C          0.09042        0.12830        0.21229
C         -0.12166       -0.10880        1.71675
O         -0.05058        1.50228       -0.11177
C         -0.88616       -0.73198       -0.64193
C         -2.26934       -0.31758       -0.45085
C         -3.38772        0.08981       -0.27345
H          2.18351        1.33117       -1.37626
H          2.56614        1.53097        0.31576
H          3.50171        0.34469       -0.65791
H          0.53330        0.54898        2.29488
H         -1.15892        0.11052        1.98743
H          0.09957       -1.14685        1.97734
H         -0.98260        1.72759       -0.00010
H         -0.61663       -0.62026       -1.69877
H         -0.74506       -1.78611       -0.38677
H         -4.38990        0.41152       -0.13087
