19
../xyz/dsC7O2H10nsd_2894.xyz
O          2.06383       -1.10081       -0.11922
C          0.98007       -0.59202        0.62657
C         -0.33506       -1.23643        0.17338
C         -1.55076       -0.33317        0.66428
C         -1.92167       -0.11331       -0.82813
C         -0.40947       -0.26232       -1.04535
C          0.36056        0.67863        0.00299
O          1.27235        1.66656       -0.36355
C         -0.78760        0.97503        0.98350
H          2.64152       -0.35216       -0.31005
H          1.21709       -0.55295        1.70044
H         -0.47507       -2.31224        0.09482
H         -2.27888       -0.68951        1.39225
H         -2.46617       -0.96006       -1.25660
H         -2.42896        0.82082       -1.09557
H          0.07521       -0.45245       -1.99945
H          0.81746        2.34233       -0.87665
H         -0.43763        1.06367        2.01595
H         -1.37038        1.86813        0.73350
