19
../xyz/dsC7O2H10nsd_0760.xyz
O         -2.24602       -1.02572        0.63841
C         -1.28555       -0.71561       -0.02637
C         -1.29353        0.52814       -0.90532
C         -0.75871        1.75612       -0.12955
C          0.75480        1.75748        0.12931
C          1.29191        0.53054        0.90517
C          1.28710       -0.71327        0.02631
O          2.24902       -1.02206       -0.63697
C          0.00148       -1.53995       -0.00088
H         -0.69246        0.36809       -1.80896
H         -2.32957        0.71081       -1.20119
H         -1.01531        2.65751       -0.69625
H         -1.30001        1.82395        0.82221
H          1.29598        1.82632       -0.82245
H          1.00976        2.65935        0.69599
H          2.32741        0.71541        1.20153
H          0.69078        0.36911        1.80854
H          0.03865       -2.18362       -0.88676
H         -0.03427       -2.18546        0.88372
