19
../xyz/dsC7O2H10nsd_4741.xyz
C          2.53478       -1.31288       -0.25940
C          1.00629       -1.34713       -0.31487
C          0.34758       -0.03790        0.18820
O          0.77879        0.24489        1.49911
C          0.73894        1.13142       -0.72874
O          1.26084        2.12808       -0.29822
C         -1.11855       -0.12768        0.09201
C         -2.31695       -0.17906       -0.02251
C         -3.76631       -0.24907       -0.13142
H          2.94978       -2.27799       -0.56320
H          2.95192       -0.54915       -0.92531
H          2.87309       -1.09387        0.75563
H          0.65053       -1.54380       -1.33295
H          0.61944       -2.15515        0.31388
H          1.07520        1.16944        1.48123
H          0.48924        1.00520       -1.80030
H         -4.07690       -1.06636       -0.79119
H         -4.22363       -0.42011        0.84909
H         -4.18042        0.68187       -0.53358
