19
../xyz/dsC7O2H10nsd_4318.xyz
O          1.05898       -0.80849        1.32117
C          1.45956       -0.52746       -0.03761
C          1.55752        0.99207       -0.17344
C          0.29184        1.80258       -0.08148
C         -0.98457        1.41968       -0.12046
C         -1.55953        0.02263       -0.23849
O         -1.78823       -0.54190        1.05682
C         -0.77174       -0.92354       -1.13062
C          0.53517       -1.17097       -1.04689
H          0.99302       -1.76669        1.40334
H          2.47214       -0.92916       -0.18367
H          2.24720        1.34609        0.60425
H          2.05497        1.21289       -1.12935
H          0.48096        2.86866        0.03876
H         -1.73873        2.19386        0.00301
H         -2.56133        0.11751       -0.66968
H         -0.91171       -0.56184        1.47192
H         -1.35512       -1.47096       -1.86745
H          0.98305       -1.89721       -1.72114
