19
../xyz/dsC7O2H10nsd_4851.xyz
C         -2.67011        0.07880       -0.17483
C         -1.42084       -0.51345       -0.83440
C         -0.17115       -0.44862        0.05060
O         -0.36858       -1.05967        1.30760
C          1.13906       -0.80270       -0.69383
C          2.29784       -0.55305        0.19713
C          1.67488        0.64568       -0.51172
C          0.39465        1.01153        0.16257
O         -0.11537        2.05113        0.47532
H         -3.53499       -0.01034       -0.83873
H         -2.90031       -0.43932        0.75981
H         -2.51645        1.13429        0.06078
H         -1.59136       -1.56917       -1.09636
H         -1.20988       -0.00060       -1.78056
H         -0.74395       -1.93637        1.16326
H          1.19541       -1.39087       -1.60136
H          2.18045       -0.67014        1.26890
H          3.27535       -0.82514       -0.18682
H          2.25133        1.26679       -1.18546
