19
../xyz/dsC7O2H10nsd_2975.xyz
C         -2.16247       -1.14921       -0.32305
C         -0.66914       -1.09105        0.00396
C         -0.28692       -0.40102        1.36957
C          0.77533        0.61808        0.88959
C          0.07654        1.22983       -0.37338
O         -1.15695        1.88200       -0.25205
C          0.19617       -0.22988       -0.95833
C          1.51180       -0.23602       -0.16041
O          2.62695       -0.63254       -0.32291
H         -2.59732       -0.15474       -0.44816
H         -2.33180       -1.69621       -1.25619
H         -2.70917       -1.67130        0.47029
H         -0.28635       -2.11741        0.00431
H         -1.14774        0.08868        1.84382
H          0.11565       -1.10480        2.10140
H          1.29248        1.22459        1.63024
H          0.73782        1.91374       -0.91083
H         -1.63426        1.52155        0.50110
H          0.15276       -0.44422       -2.02403
