19
../xyz/dsC7O2H10nsd_1406.xyz
C          0.72793       -1.66937        0.98162
C          0.86290       -0.50970        0.00727
C          2.22172       -0.47213       -0.67978
C         -0.28815       -0.11729       -0.95455
C         -1.60337       -0.16290       -0.26010
O         -2.68836       -0.58241       -0.55768
C         -1.12604        0.73589        0.91609
C          0.23575        0.81622        0.21504
O          1.00124        1.95621        0.15507
H          0.88428       -2.61867        0.45828
H          1.48568       -1.59632        1.77002
H         -0.25222       -1.71666        1.46033
H          2.30219        0.36029       -1.38097
H          3.01754       -0.35779        0.06369
H          2.39884       -1.40695       -1.22138
H         -0.11786       -0.12057       -2.02487
H         -1.66431        1.68998        0.87225
H         -1.17325        0.35086        1.93822
H          0.43155        2.70125       -0.06824
