19
../xyz/dsC7O2H10nsd_1918.xyz
C          1.50483        1.49005        0.32548
C          0.68900        0.22915        0.08542
C         -0.36288       -0.21117        1.18717
C         -1.46852       -0.16670        0.12929
O         -2.45450       -1.12713        0.00426
C         -1.57774        1.20250       -0.46885
C         -0.47511        0.27313       -0.93530
C          1.57245       -0.95864       -0.23135
O          2.77478       -0.93228       -0.29419
H          2.10648        1.73376       -0.55475
H          0.86155        2.34482        0.55088
H          2.19576        1.34952        1.16169
H         -0.18449       -1.22424        1.55734
H         -0.46135        0.46846        2.03937
H         -3.23448       -0.82951        0.48548
H         -2.38269        1.30664       -1.18978
H         -1.36392        2.10081        0.10478
H         -0.39941       -0.02161       -1.97522
H          1.00804       -1.90334       -0.41155
