19
../xyz/dsC7O2H10nsd_5911.xyz
C          3.81631       -1.09381        0.33001
C          2.85136       -0.00628       -0.14846
C          1.38307       -0.42588       -0.03058
C          0.41272        0.69870       -0.45190
O          0.58762        1.88545        0.31295
C         -0.97342        0.22714       -0.40863
C         -2.11241       -0.16484       -0.30538
C         -3.46747       -0.64553       -0.22638
O         -4.23652       -0.38096        0.66909
H          3.64461       -1.34101        1.38351
H          3.69791       -2.01656       -0.24880
H          4.85658       -0.76962        0.23036
H          3.00270        0.91314        0.42620
H          3.06901        0.24677       -1.19456
H          1.18497       -1.30840       -0.65104
H          1.15085       -0.71472        1.00329
H          0.65093        0.99538       -1.48155
H          0.23794        1.72031        1.19625
H         -3.76521       -1.29815       -1.07219
