19
../xyz/dsC7O2H10nsd_3259.xyz
C          2.46874        0.38333       -0.05423
C          1.02110        0.37241       -0.54463
C          0.04077        1.13196        0.39191
C         -1.31635        1.37955       -0.31421
C         -1.63907       -0.10637       -0.05416
O         -0.95114       -0.95645       -0.98164
C          0.37459       -1.03146       -0.46338
O          0.20183       -1.22618        0.93103
C         -0.61598       -0.09554        1.13753
H          3.11158       -0.22124       -0.70350
H          2.86801        1.40261       -0.04567
H          2.53891       -0.01984        0.95988
H          0.96263        0.75152       -1.56927
H          0.50509        1.93610        0.96340
H         -1.97114        2.03709        0.26665
H         -1.30067        1.70505       -1.35700
H         -2.66833       -0.45092        0.04866
H          0.90243       -1.86979       -0.91693
H         -0.95689       -0.01300        2.16566
