19
../xyz/dsC7O2H10nsd_2512.xyz
C         -1.81124        1.67936       -0.13974
C         -0.74717        0.67987        0.16551
C         -0.75912       -0.66066        0.14461
C         -1.83256       -1.63820       -0.19043
C          0.70342       -1.04331        0.37927
O          1.41128       -0.76743       -0.85805
C          1.48918        0.66250       -0.88243
C          0.71502        1.04225        0.42061
O          1.16450       -0.04184        1.25424
H         -1.95141        2.38056        0.69271
H         -1.55316        2.28524       -1.01838
H         -2.77259        1.19939       -0.34135
H         -1.98090       -2.36513        0.61804
H         -2.79029       -1.14573       -0.37939
H         -1.56752       -2.21282       -1.08712
H          0.95434       -2.04643        0.72068
H          2.53745        0.97521       -0.82905
H          1.02813        1.06203       -1.79187
H          0.94455        2.01099        0.86187
