19
../xyz/dsC7O2H10nsd_1041.xyz
C          3.81591        0.71463       -0.15611
C          2.58710       -0.05840       -0.04548
C          1.57355       -0.70059        0.04945
C          0.33679       -1.46680        0.14658
C         -0.91512       -0.65838       -0.22111
C         -2.18535       -1.49974       -0.22487
O         -1.02888        0.38623        0.78129
C         -1.60853        1.53145        0.40369
O         -2.06950        1.77944       -0.67751
H          4.28939        0.85321        0.82216
H          4.54258        0.21817       -0.80872
H          3.62248        1.70895       -0.57355
H          0.38087       -2.33715       -0.52048
H          0.21017       -1.86103        1.16313
H         -0.77961       -0.17439       -1.19101
H         -2.35604       -1.95056        0.75781
H         -3.04691       -0.88098       -0.48483
H         -2.10478       -2.30150       -0.96529
H         -1.59720        2.22681        1.25773
