19
../xyz/dsC7O2H10nsd_4021.xyz
C         -2.51923       -0.60722       -0.54008
C         -1.55044        0.25028        0.25498
O         -0.83213        1.12308       -0.64345
C          0.50133        1.17942       -0.20347
C          0.69485        0.53258        1.14044
C         -0.42648       -0.51081        0.95727
O          0.33741       -1.20891       -0.07599
C          1.27879       -0.12663       -0.09364
C          2.66420       -0.40946       -0.56598
H         -1.96480       -1.26297       -1.21457
H         -3.13045       -1.21724        0.13327
H         -3.18774        0.02582       -1.12936
H         -2.09399        0.86321        0.99395
H          1.01839        2.09166       -0.47821
H          1.11024        0.94627        2.04949
H         -0.71612       -1.16715        1.77900
H          2.65155       -0.73597       -1.61159
H          3.28161        0.49121       -0.49797
H          3.13087       -1.19706        0.03443
