19
../xyz/dsC7O2H10nsd_3443.xyz
C         -2.90597       -0.57639       -0.42067
C         -1.50439       -0.24778        0.00594
C         -0.49698       -1.12269       -0.02116
C          0.87823       -0.73861        0.47658
O          1.86445       -1.66541        0.12139
C          1.21472        0.64759       -0.07685
O          2.29768        0.84372       -0.58340
C          0.12008        1.69457       -0.00225
C         -1.22315        1.15114        0.52368
H         -3.61593       -0.42009        0.40209
H         -3.23387        0.07545       -1.24075
H         -2.99400       -1.61418       -0.75198
H         -0.61061       -2.14282       -0.37389
H          0.84244       -0.62784        1.58032
H          2.57017       -1.13683       -0.28617
H          0.48512        2.53042        0.60530
H          0.00321        2.08871       -1.01788
H         -1.21138        1.13510        1.62305
H         -2.02742        1.83863        0.24449
