19
../xyz/dsC7O2H10nsd_0834.xyz
O         -3.12024        0.85566        0.03433
C         -2.67002       -0.24598       -0.15965
C         -1.28730       -0.68630        0.23140
C         -0.24433       -0.71450       -0.94421
C          0.76913       -0.00531       -0.01175
C          2.01829       -0.76843        0.48141
O          2.90117        0.24294       -0.03943
C          1.78950        1.02907       -0.51531
C         -0.38040        0.32665        0.96836
H         -3.26762       -1.01852       -0.69718
H         -1.34683       -1.66493        0.71916
H          0.03951       -1.69469       -1.33464
H         -0.55051       -0.07745       -1.78010
H          2.10693       -0.87020        1.57173
H          2.19441       -1.74801        0.01618
H          1.73925        2.01154       -0.02700
H          1.82133        1.17277       -1.60381
H         -0.18960        0.14598        2.02896
H         -0.76347        1.34353        0.84607
