19
../xyz/dsC7O2H10nsd_3675.xyz
C          2.45045       -0.19057       -0.97412
C          1.58522       -0.71454        0.15090
C          1.24006        0.17706        1.32515
C          0.18361       -0.21676        0.32663
C         -1.08686       -0.98766        0.62619
O         -1.66662       -1.35235       -0.63919
C         -1.89554       -0.02933       -0.14644
C         -0.63881        0.80296       -0.51719
O         -0.61384        2.13631       -0.07403
H          2.24740        0.86791       -1.16630
H          3.51418       -0.28660       -0.73083
H          2.26694       -0.74050       -1.90337
H          1.73843       -1.76463        0.39052
H          1.20111       -0.25690        2.31951
H          1.59141        1.20490        1.29540
H         -1.33508       -1.60414        1.48325
H         -2.91918        0.30900       -0.02915
H         -0.42762        0.82400       -1.58886
H         -0.66266        2.12824        0.88890
