19
../xyz/dsC7O2H10nsd_4217.xyz
C          2.02533       -1.25340        0.53709
C          1.40641       -0.30894       -0.49038
O          1.39319        1.04914       -0.01156
C          0.04059        1.46854        0.09452
C         -0.73128        0.67720        1.20182
C         -1.18148       -0.27174        0.09006
O         -2.34296       -1.02082        0.10285
C         -0.77788        0.71486       -0.98560
C         -0.04061       -0.59210       -0.87601
H          3.02705       -0.91126        0.81208
H          1.42016       -1.31232        1.44569
H          2.11353       -2.26138        0.11650
H          2.02709       -0.32748       -1.39857
H          0.01422        2.55592        0.13932
H         -0.14010        0.30134        2.04258
H         -1.58836        1.24625        1.57506
H         -2.16566       -1.85046        0.55971
H         -1.29652        1.09678       -1.85372
H         -0.25981       -1.37055       -1.59793
