19
../xyz/dsC7O2H10nsd_0750.xyz
O         -2.32039       -1.05467       -0.55179
C         -1.44799       -0.51587        0.08947
C         -1.47361        0.98059        0.38948
C         -0.30047        1.78557       -0.20374
O          0.97213        1.34657        0.25096
C          1.49372        0.30139       -0.51454
C          2.30646       -0.72922        0.20128
C          0.93116       -1.08927       -0.32849
C         -0.24196       -1.28535        0.62429
H         -2.41587        1.38539        0.00848
H         -1.45469        1.11200        1.47890
H         -0.34286        1.76302       -1.30206
H         -0.39568        2.82872        0.11276
H          1.79923        0.59897       -1.51826
H          3.18359       -1.13134       -0.29323
H          2.40340       -0.60887        1.27484
H          0.88837       -1.70856       -1.21919
H         -0.50277       -2.34397        0.69725
H          0.01943       -0.91747        1.62058
