19
../xyz/dsC7O2H10nsd_5994.xyz
O          3.65689       -0.19549        0.31016
C          2.25792       -0.22799        0.53013
C          1.46352        0.36391       -0.65082
C         -0.02071        0.25931       -0.47650
C         -0.86700        1.24968       -0.16183
C         -2.24765        0.72640        0.04053
O         -2.34131       -0.23945        1.11817
C         -2.19009       -0.72322       -0.21625
C         -0.75728       -1.07069       -0.59798
H          3.93028        0.72697        0.28222
H          2.00511       -1.28461        0.66322
H          1.97704        0.29260        1.45801
H          1.74429        1.41849       -0.76769
H          1.78366       -0.15917       -1.56123
H         -0.59499        2.29077       -0.03333
H         -3.13377        1.33637       -0.10479
H         -3.02573       -1.29985       -0.60387
H         -0.34172       -1.84350        0.05957
H         -0.70098       -1.46301       -1.62230
