19
../xyz/dsC7O2H10nsd_3653.xyz
C         -2.25143       -0.97282       -0.88935
C         -0.96978       -1.02778       -0.08549
C         -0.90873       -0.63654        1.35056
C         -0.16521        0.21334        0.31212
C         -0.71088        1.56639        0.05967
O         -0.03050        2.52824       -0.21179
C          1.33600        0.14088        0.27628
C          2.07651       -0.36983       -0.88146
O          1.91485       -1.16469        0.30065
H         -2.78056       -1.92811       -0.80721
H         -2.93280       -0.19330       -0.53861
H         -2.05294       -0.79277       -1.95103
H         -0.30811       -1.84994       -0.34433
H         -1.79246       -0.19685        1.80353
H         -0.28628       -1.21329        2.02515
H         -1.81499        1.65991        0.15791
H          1.83717        0.86648        0.91568
H          1.52782       -0.72101       -1.75365
H          3.08949       -0.02146       -1.07230
