19
../xyz/dsC7O2H10nsd_4976.xyz
C          2.58564       -0.18385        0.37850
O          1.65162       -0.48543       -0.65164
C          0.35161       -0.35538       -0.27316
C         -0.88231       -0.18033       -1.07139
O         -1.59003       -1.28331       -0.51342
C         -0.67708       -1.20251        0.61552
C         -1.08808        0.11377        1.32078
C         -0.55391        0.83117        0.08015
C         -0.37260        2.29859       -0.16596
H          2.48482       -0.87778        1.22395
H          3.58113       -0.29368       -0.05576
H          2.45818        0.84286        0.74457
H         -1.05806        0.10826       -2.09933
H         -0.53934       -2.14797        1.13564
H         -2.15193        0.20236        1.56383
H         -0.47419        0.32151        2.20228
H         -1.33746        2.81730       -0.20797
H          0.22315        2.77124        0.62346
H          0.14147        2.47712       -1.11683
