19
../xyz/dsC7O2H10nsd_1043.xyz
C          3.79300        0.66509       -0.08690
C          2.52750       -0.05419       -0.14100
C          1.49501       -0.67180       -0.21390
C          0.20652       -1.36332       -0.24008
C         -0.92224       -0.44831        0.21088
O         -0.69949        0.17262        1.45462
C         -2.36019       -0.80192       -0.05390
C         -1.72032        0.38376       -0.76155
O         -2.05742        1.68033       -0.38874
H          4.26475        0.57212        0.89735
H          4.49737        0.27575       -0.83000
H          3.65399        1.73230       -0.29078
H         -0.01005       -1.73381       -1.24908
H          0.24370       -2.24292        0.41686
H          0.20641        0.51356        1.42692
H         -2.57640       -1.70428       -0.61697
H         -3.06670       -0.56971        0.73580
H         -1.51684        0.30546       -1.82564
H         -1.75666        1.77216        0.52721
