19
../xyz/dsC7O2H10nsd_5326.xyz
C         -3.07402       -0.29811       -0.66102
C         -2.17398       -0.48505        0.57627
C         -0.73433       -0.13305        0.31192
C          0.22383       -1.04998        0.09940
C          1.63334       -0.66466       -0.05656
O          2.53839       -1.46679       -0.17236
C          1.90887        0.83716        0.01892
O          0.81038        1.62276       -0.40168
C         -0.37687        1.33400        0.29813
H         -4.11018       -0.55083       -0.41846
H         -3.05861        0.73431       -1.02286
H         -2.74600       -0.94495       -1.47960
H         -2.55473        0.14208        1.39371
H         -2.23626       -1.52296        0.91791
H          0.00984       -2.11536        0.09402
H          2.19878        1.07897        1.05816
H          2.75227        1.08098       -0.63007
H         -0.31938        1.69213        1.34528
H         -1.16683        1.91598       -0.18814
