19
../xyz/dsC7O2H10nsd_0038.xyz
C         -3.07015        0.40252        0.01866
O         -2.22141       -0.74142       -0.01734
C         -0.90095       -0.52380       -0.00747
C          0.13323       -1.40212       -0.00074
C          1.32903       -0.59273        0.00153
C          2.73284       -1.11355        0.00882
C          0.92436        0.70588       -0.00305
C          1.61522        2.02035       -0.00160
O         -0.46291        0.75580       -0.00905
H         -2.90291        0.99340        0.92535
H         -2.91211        1.04277       -0.85540
H         -4.08903        0.01391        0.01306
H          0.06132       -2.47713        0.00235
H          3.46674       -0.30331        0.00967
H          2.92347       -1.73440        0.89209
H          2.93081       -1.73918       -0.86944
H          1.36238        2.61760       -0.88652
H          1.35489        2.61951        0.87987
H          2.69742        1.87243        0.00317
