19
../xyz/dsC7O2H10nsd_0775.xyz
O          1.80933       -1.14194        0.99311
C          1.14728       -0.76032        0.05450
C          1.49691        0.53072       -0.68876
C          0.82016        1.78168       -0.09949
C         -0.69976        1.70172       -0.12817
O         -1.12940        0.67304        0.75615
C         -1.98230       -0.30574        0.21356
C         -1.26404       -1.44403       -0.45628
C          0.05271       -1.63095       -0.50833
H          2.58272        0.64549       -0.61944
H          1.22436        0.43223       -1.74622
H          1.14452        1.91411        0.93844
H          1.14580        2.66669       -0.65852
H         -1.13910        2.65275        0.20314
H         -1.05538        1.50815       -1.14998
H         -2.57149       -0.70538        1.05057
H         -2.70887        0.14211       -0.48508
H         -1.92084       -2.19987       -0.88540
H          0.43309       -2.54363       -0.96374
