19
../xyz/dsC7O2H10nsd_3465.xyz
C         -1.69318       -1.24107       -1.04237
C         -0.93835       -0.37015       -0.04864
C         -1.67425        0.88500        0.50060
O         -0.57455        1.74211        0.13896
C          0.11323        0.66762       -0.53830
C          1.46816        0.32982        0.11477
O          2.43281       -0.18603       -0.79832
C          1.10260       -0.75254        1.10009
C         -0.17224       -1.12962        1.00254
H         -2.17429       -0.63316       -1.81548
H         -1.01751       -1.94779       -1.53435
H         -2.47508       -1.82249       -0.53998
H         -2.58817        1.14369       -0.05160
H         -1.88148        0.90825        1.57667
H          0.20050        0.84373       -1.61753
H          1.84957        1.22971        0.62110
H          2.79497        0.55548       -1.29436
H          1.83342       -1.16599        1.78559
H         -0.64376       -1.89441        1.61261
