19
../xyz/dsC7O2H10nsd_4139.xyz
C         -2.40366       -0.95567        0.14585
C         -1.17211       -0.38299       -0.53355
O         -1.18682        1.09717       -0.48745
C          0.06415        1.46831        0.17230
C          0.14417        0.46239        1.31437
C          0.20107       -0.54193        0.09297
C          1.50562       -1.33503        0.04480
O          2.23138       -0.08449       -0.18701
C          1.00557        0.55464       -0.64662
H         -2.42627       -0.73083        1.21462
H         -3.30721       -0.53838       -0.30800
H         -2.43007       -2.04344        0.01819
H         -1.16326       -0.68507       -1.58783
H          0.09199        2.55446        0.25807
H          1.08655        0.48407        1.85812
H         -0.70896        0.41107        1.99073
H          1.83567       -1.83669        0.95945
H          1.60697       -2.01023       -0.81478
H          0.98928        0.67524       -1.73354
