19
../xyz/dsC7O2H10nsd_5382.xyz
O          2.55470       -0.66704       -0.20604
C          2.09535        0.64805        0.07522
C          0.60065        0.71098        0.15607
C         -0.22817        1.63151       -0.34488
C         -1.68995        1.32574       -0.10411
C         -1.65246       -0.10481        0.46422
C         -1.52524       -1.26774       -0.54725
O         -0.19184       -1.60211       -0.08776
C         -0.17197       -0.42575        0.77946
H          1.83131       -1.15054       -0.62549
H          2.54072        0.93554        1.03935
H          2.46252        1.36991       -0.67121
H          0.09446        2.51899       -0.88106
H         -2.14169        2.03412        0.60272
H         -2.28358        1.39436       -1.02503
H         -2.37370       -0.28645        1.26057
H         -2.21214       -2.10984       -0.41233
H         -1.53306       -0.96056       -1.60087
H          0.14294       -0.70021        1.79131
