19
../xyz/dsC7O2H10nsd_0439.xyz
C          2.42818       -0.39958       -0.54841
C          2.29409        0.51878        0.63685
C          1.27779       -0.57406        0.41910
C         -0.10631       -0.24449       -0.02456
C         -1.09103       -1.35899       -0.43457
O         -2.16740       -0.73440        0.31153
C         -1.30613        0.30968        0.79237
C         -1.23343        1.51224       -0.15381
O         -0.17437        0.88612       -0.92707
H          2.19546        0.01528       -1.52195
H          3.21161       -1.14872       -0.54425
H          2.98788        0.40853        1.46254
H          1.97853        1.53570        0.43483
H          1.32953       -1.43102        1.08465
H         -1.29672       -1.42198       -1.50826
H         -0.85955       -2.35528       -0.03602
H         -1.36925        0.46174        1.87131
H         -2.13597        1.69409       -0.74599
H         -0.88628        2.44630        0.30561
