19
../xyz/dsC7O2H10nsd_1783.xyz
C          2.61169       -0.91985        0.00004
C          1.26189       -0.24477       -0.00000
C          0.15222       -0.53064        1.06738
C         -0.71981        0.18797        0.00003
C          0.15212       -0.53086       -1.06723
O         -0.21115        1.52877       -0.00011
C          1.21567        1.29453       -0.00016
C         -2.21709        0.16468        0.00014
O         -2.85890       -0.85578       -0.00015
H          2.50800       -2.00919       -0.00022
H          3.19454       -0.63861       -0.88458
H          3.19427       -0.63901        0.88496
H         -0.08826       -1.58974        1.16424
H          0.22803       -0.04600        2.04395
H         -0.08837       -1.58998       -1.16384
H          0.22784       -0.04643       -2.04391
H          1.67038        1.74053       -0.89293
H          1.67048        1.74073        0.89246
H         -2.69656        1.16749        0.00078
