19
../xyz/dsC7O2H10nsd_2222.xyz
O         -2.18692       -0.54863        0.01999
C         -0.80245       -0.38184        0.05026
C          0.14033       -1.58286        0.00892
C          1.38711       -0.69416       -0.11171
C          1.29037        0.18835        1.15320
C         -0.17778        0.67516        1.06166
C         -0.31206        1.74384       -0.05300
C         -0.25952        0.57584       -1.06160
O          1.08615        0.12318       -1.25839
H         -2.45994       -0.96732        0.84319
H          0.12469       -2.18909        0.92025
H         -0.01610       -2.21678       -0.86711
H          2.34593       -1.18304       -0.28347
H          1.46663       -0.41326        2.05147
H          2.01167        1.01011        1.14505
H         -0.66788        0.84664        2.02212
H         -1.29875        2.21453       -0.04894
H          0.46828        2.50459       -0.13552
H         -0.76443        0.65123       -2.02631
