19
../xyz/dsC7O2H10nsd_0002.xyz
C         -1.79635       -0.99264       -1.00159
C         -1.21565        0.02356       -0.00462
C         -1.76220       -0.22907        1.40649
O         -1.66175        1.34177       -0.34449
C          0.29669       -0.01576       -0.00563
C          1.12315        1.06526       -0.04030
O          2.42911        0.68162       -0.01942
C          2.43712       -0.67473        0.03333
C          1.16951       -1.15983        0.04330
H         -1.41874       -0.80302       -2.01239
H         -1.52667       -2.01885       -0.73419
H         -2.88691       -0.91243       -1.01534
H         -1.38980        0.53631        2.09154
H         -2.85548       -0.19012        1.39777
H         -1.44613       -1.20888        1.77449
H         -1.36453        1.52139       -1.24363
H          0.94056        2.12551       -0.06631
H          3.41002       -1.13776        0.05333
H          0.88516       -2.20001        0.08014
