19
../xyz/dsC7O2H10nsd_4838.xyz
C          1.69449        1.87467       -0.14108
C          1.15669        0.77967        0.78807
C          0.75765       -0.49902        0.06526
C          1.90967       -1.34188       -0.45873
C         -0.44620       -1.28605        0.45638
O         -1.48372       -0.42729        0.99838
C         -1.61427        0.20416       -0.23996
O         -2.42176        1.01824       -0.54719
C         -0.48366       -0.55985       -0.86921
H          0.94071        2.16469       -0.87978
H          1.96092        2.76700        0.43274
H          2.58979        1.55198       -0.68211
H          1.91804        0.51958        1.53473
H          0.29912        1.16174        1.34801
H          2.49297       -0.79440       -1.20501
H          2.58262       -1.61410        0.36118
H          1.55603       -2.26574       -0.92721
H         -0.51076       -2.33937        0.69382
H         -0.43169       -0.90911       -1.89029
