19
../xyz/dsC7O2H10nsd_2500.xyz
O          1.63179        1.50378       -0.00289
C          0.53168        0.65536       -0.04208
C         -0.75011        1.46021       -0.18989
C         -1.95839        0.64444        0.29004
C         -1.85603       -0.81389       -0.18400
C         -0.42229       -1.31968       -0.03875
C          0.69416       -0.65470       -0.87695
O          1.69521       -1.11752        0.12055
C          0.55879       -0.59135        0.92062
H          2.39758        0.91365        0.06240
H         -0.64926        2.38613        0.38462
H         -0.86219        1.75492       -1.24085
H         -1.97121        0.65301        1.38708
H         -2.89714        1.10283       -0.03552
H         -2.54075       -1.44767        0.38970
H         -2.16133       -0.90361       -1.23495
H         -0.31732       -2.40527       -0.00168
H          0.94355       -0.78164       -1.93237
H          0.65520       -0.64482        2.00623
