19
../xyz/dsC7O2H10nsd_4138.xyz
C         -2.32868       -1.07507        0.12812
C         -1.21692       -0.32305       -0.59731
C         -1.21745        1.25109       -0.35025
C          0.15734        1.40247        0.38673
O          0.11766        0.23455        1.24201
C          0.19223       -0.50203       -0.03900
C          1.47296       -1.32484        0.00503
O          2.23925       -0.09174       -0.15679
C          1.06157        0.63251       -0.59082
H         -2.26419       -0.89577        1.20466
H         -3.31372       -0.74436       -0.21703
H         -2.25928       -2.15399       -0.04748
H         -1.24088       -0.54640       -1.66870
H         -1.28626        1.82723       -1.27767
H         -2.03120        1.55427        0.31195
H          0.37642        2.34327        0.89467
H          1.69227       -1.83140        0.94819
H          1.62461       -2.00016       -0.84669
H          1.12063        0.93823       -1.63870
