19
../xyz/dsC7O2H10nsd_0876.xyz
O         -2.60622       -0.64208       -0.05073
C         -1.51328       -1.04663        0.25372
C         -0.24223       -0.68680       -0.49528
O          0.78958       -1.60983       -0.16489
C          1.93279       -0.91280        0.34120
C          1.80320        0.51821       -0.18333
C          0.29473        0.71061       -0.14440
C         -0.40329        1.96554       -0.56834
C         -0.34483        1.60291        0.89712
H         -1.34299       -1.71465        1.12764
H         -0.45595       -0.75269       -1.57190
H          1.92891       -0.93038        1.44100
H          2.82865       -1.43353       -0.00879
H          2.34529        1.24796        0.42317
H          2.17427        0.58028       -1.21311
H          0.20169        2.79302       -0.92456
H         -1.36221        1.85844       -1.06481
H          0.32064        2.16915        1.54046
H         -1.26783        1.29135        1.37163
