19
../xyz/dsC7O2H10nsd_6063.xyz
O          4.37516       -0.77226       -0.06325
C          3.48306        0.31686        0.10442
C          2.06556       -0.21440       -0.06398
C          1.00802        0.89421        0.09678
C         -0.35772        0.40966       -0.05936
C         -1.48196       -0.00509       -0.18507
C         -2.81282       -0.52150       -0.35208
C         -4.00277        0.35081       -0.29178
O         -3.68455       -0.51006        0.79309
H          5.27317       -0.44754        0.04931
H          3.59249        0.77506        1.10169
H          3.67442        1.10936       -0.63857
H          1.97245       -0.67589       -1.05234
H          1.88961       -1.00410        0.67332
H          1.11107        1.36104        1.08579
H          1.19681        1.69303       -0.63363
H         -2.89015       -1.43204       -0.94569
H         -3.86469        1.41411       -0.10501
H         -4.88821        0.08222       -0.86715
