19
../xyz/dsC7O2H10nsd_4611.xyz
C         -2.08568        1.91779       -0.17453
C         -1.97867        0.68634        0.73028
C         -1.09597       -0.40093        0.13929
C         -1.46622       -1.82456        0.29143
O         -1.70185       -1.14928       -0.93773
C          0.29779       -0.06741       -0.04788
C          1.45481        0.23718       -0.19679
C          2.87019        0.57918       -0.33315
O          3.74198       -0.32432        0.33137
H         -2.73758        2.67288        0.27383
H         -1.10370        2.37112       -0.33957
H         -2.50004        1.64326       -1.14901
H         -1.57555        0.96845        1.71030
H         -2.97205        0.25732        0.89881
H         -0.68720       -2.58443        0.26852
H         -2.35362       -2.07598        0.87194
H          3.15960        0.54973       -1.38950
H          3.02697        1.61469        0.00907
H          3.44470       -0.39372        1.24456
