19
../xyz/dsC7O2H10nsd_3271.xyz
C         -2.44915       -0.31968        0.26839
C         -1.12418       -0.46665       -0.47101
C         -0.01088       -1.29388        0.23042
O          1.03636       -1.26941       -0.75384
C          1.29818        0.14150       -0.69165
C          1.83618        0.31540        0.74490
C          0.39096       -0.04237        1.12068
C         -0.11649        0.66756       -0.20555
O         -0.34058        2.02082       -0.38642
H         -3.05751        0.47581       -0.17820
H         -3.03393       -1.24341        0.21331
H         -2.31177       -0.07885        1.32799
H         -1.28570       -0.74942       -1.51643
H         -0.16894       -2.29544        0.62623
H          1.79832        0.49994       -1.58955
H          2.65971       -0.33653        1.04474
H          2.04829        1.35982        0.98533
H         -0.04188        0.07223        2.11196
H         -1.12070        2.27329        0.11959
