19
../xyz/dsC7O2H10nsd_5914.xyz
C         -1.00167        1.95022       -0.81407
C         -0.21121        1.05143        0.15407
C          1.06048        0.48906       -0.51019
C          1.96630       -0.28973        0.44788
O          3.11635       -0.81028       -0.19728
C         -1.10847       -0.06328        0.68560
O         -1.41345       -0.16602        1.85401
C         -1.60383       -1.01682       -0.30028
C         -2.01143       -1.80980       -1.10958
H         -0.37420        2.78072       -1.15132
H         -1.32549        1.38915       -1.69590
H         -1.88934        2.36979       -0.33137
H          0.06620        1.63266        1.04078
H          0.79018       -0.16031       -1.35056
H          1.62495        1.33204       -0.93176
H          2.23751        0.34433        1.30743
H          1.43710       -1.15972        0.85127
H          3.64695       -0.06661       -0.50044
H         -2.37814       -2.51812       -1.81262
