19
../xyz/dsC7O2H10nsd_6053.xyz
C          3.40135        0.56316       -0.26325
C          1.96525        0.71346        0.20589
O          1.30993       -0.53930        0.05359
C         -0.01369       -0.53784        0.48081
C         -0.72565       -1.88545        0.31296
O         -1.80549       -1.27607       -0.42780
C         -1.10372       -0.00947       -0.51468
C         -1.90485        1.13389       -0.12644
C         -2.54447        2.09311        0.21492
H          3.93676        1.51085       -0.15459
H          3.91933       -0.19922        0.32535
H          3.43303        0.26489       -1.31486
H          1.92775        1.02543        1.26207
H          1.44399        1.48732       -0.37883
H         -0.11853       -0.09216        1.47895
H         -0.14608       -2.58913       -0.29693
H         -1.08012       -2.38252        1.22122
H         -0.67908        0.13465       -1.51827
H         -3.11786        2.93763        0.50835
