19
../xyz/dsC7O2H10nsd_1928.xyz
O         -2.30276       -0.76541       -0.95424
C         -1.37099       -0.11041       -0.15315
C         -1.45537       -0.39459        1.31143
C         -0.22070       -0.82734        0.53493
C          0.99041        0.09938        0.57684
C          0.39889        1.50954        0.25162
C         -0.87915        1.26566       -0.57922
C          1.99152       -0.31310       -0.48150
O          3.13841       -0.61222       -0.27249
H         -1.90978       -0.90011       -1.82437
H         -1.39084        0.41286        2.03367
H         -2.13354       -1.19379        1.58778
H         -0.07009       -1.89261        0.39764
H          1.51146        0.09148        1.53906
H          0.15568        2.01394        1.19040
H          1.11910        2.14952       -0.26615
H         -1.62798        2.05132       -0.43660
H         -0.64716        1.23486       -1.65254
H          1.58035       -0.32132       -1.52082
