19
../xyz/dsC7O2H10nsd_5251.xyz
C          2.78385        0.41434       -0.67458
C          2.03513       -0.24260        0.49345
C          0.55331       -0.20841        0.30427
O          0.00103       -0.90857       -0.82108
C         -1.27357       -1.01401       -0.11339
C         -2.13680        0.13961       -0.60118
O         -1.38467        1.30701       -0.24245
C         -0.41342        0.90404        0.69465
C         -0.63812       -0.49502        1.19562
H          3.86607        0.34551       -0.53166
H          2.53097       -0.07806       -1.61757
H          2.51698        1.47169       -0.76724
H          2.35538       -1.28620        0.60450
H          2.27561        0.26399        1.43611
H         -1.70327       -2.01489       -0.16503
H         -2.26404        0.12331       -1.68759
H         -3.12541        0.14889       -0.11617
H         -0.08317        1.70111        1.35036
H         -0.76217       -0.85063        2.20965
