19
../xyz/dsC7O2H10nsd_4557.xyz
C         -2.27779       -1.62567       -0.14600
C         -1.35978       -0.51073        0.32418
C         -1.67541        0.85750       -0.29178
C         -0.57255        1.84767        0.08663
O          0.70735        1.32220       -0.24854
C          0.91804        0.07776        0.37670
O         -0.02340       -0.88889       -0.02530
C          2.25690       -0.39868        0.03740
C          3.36601       -0.78853       -0.20020
H         -2.22093       -1.73265       -1.23333
H         -1.98639       -2.57642        0.30808
H         -3.31426       -1.40876        0.12981
H         -1.41812       -0.42353        1.42430
H         -1.71800        0.75735       -1.38191
H         -2.64881        1.21977        0.05771
H         -0.66628        2.79251       -0.45381
H         -0.61347        2.06667        1.16748
H          0.83684        0.21635        1.47448
H          4.34537       -1.13363       -0.42365
