19
../xyz/dsC7O2H10nsd_3941.xyz
O         -2.62128       -0.52991       -0.02483
C         -1.36907       -0.19140       -0.57220
C         -1.00314        1.31900       -0.42732
C          0.31720        0.91255        0.26231
C          0.03029        0.13592        1.53134
C         -0.09268       -0.54678        0.20237
O          0.92996       -1.35646       -0.28600
C          2.13616       -0.57006       -0.26288
C          1.72254        0.93770       -0.29741
H         -2.69534       -1.49036       -0.01605
H         -1.26982       -0.52887       -1.61267
H         -0.86970        1.82279       -1.38659
H         -1.69734        1.89793        0.18781
H          0.88634       -0.15517        2.12943
H         -0.86219        0.36898        2.10425
H          2.70122       -0.79068        0.65263
H          2.75037       -0.87192       -1.11617
H          2.44214        1.55012        0.25499
H          1.69709        1.30655       -1.32824
