19
../xyz/dsC7O2H10nsd_5966.xyz
C         -3.40427        0.16476       -0.08540
O         -2.06248        0.30938        0.31359
C         -1.16487       -0.39937       -0.51483
C          0.22999       -0.16571       -0.01380
C          0.77125        1.25649        0.13918
C          2.26358        1.08114       -0.05460
C          2.59420       -0.18324       -0.33015
C          1.37668       -1.04858       -0.30277
O          0.71688       -1.06879        0.98569
H         -3.73130       -0.88621       -0.04549
H         -4.01561        0.75108        0.60461
H         -3.56857        0.53529       -1.11031
H         -1.38186       -1.47904       -0.50181
H         -1.25238       -0.04898       -1.55896
H          0.33587        1.93204       -0.60803
H          0.52118        1.67060        1.12180
H          2.96267        1.90254        0.05651
H          3.59250       -0.56186       -0.50974
H          1.30279       -1.97324       -0.86860
