19
../xyz/dsC7O2H10nsd_1529.xyz
C          2.43033        0.75975       -0.25120
C          1.23834       -0.13029        0.05913
C          1.65586       -1.52579        0.50062
O          0.33023       -0.23944       -1.09919
C         -0.77828        0.15701       -0.30141
C         -0.61911        1.55539        0.22983
C          0.09846        0.43957        0.92419
C         -2.04944       -0.58047       -0.38066
O         -3.03875       -0.29477        0.25298
H          3.01476        0.32747       -1.06956
H          2.11841        1.76271       -0.54997
H          3.08066        0.84465        0.62528
H          2.24733       -1.47674        1.42131
H          0.77909       -2.15219        0.68556
H          2.26352       -2.00108       -0.27490
H         -0.08761        2.27462       -0.38497
H         -1.49028        1.93009        0.75653
H         -0.09828        0.16198        1.95165
H         -2.01634       -1.44892       -1.07419
