19
../xyz/dsC7O2H10nsd_1344.xyz
C         -1.44524        1.93135       -0.07618
C         -1.03934        0.46074       -0.25948
C         -2.10613       -0.45452        0.31173
O         -2.55979       -1.42099       -0.24502
C          0.29417        0.14486        0.44099
C          0.86628       -1.29377        0.15056
C          2.06958       -0.62969       -0.52824
O          2.68526        0.22974        0.44098
C          1.54383        0.71846       -0.26348
H         -2.36442        2.16120       -0.62348
H         -1.61538        2.16223        0.98143
H         -0.66264        2.60325       -0.43906
H         -0.94881        0.21841       -1.32475
H         -2.44214       -0.17459        1.33921
H          0.24220        0.41619        1.50076
H          1.10533       -1.91599        1.01580
H          0.22897       -1.85384       -0.53783
H          2.70016       -1.00113       -1.32731
H          1.65408        1.64969       -0.80794
