19
../xyz/dsC7O2H10nsd_4358.xyz
O          1.99937       -0.49853       -1.06521
C          1.54291        0.08070        0.15785
C          0.80109       -0.95521        1.01711
C         -0.47312       -1.45251        0.32369
C         -1.41357       -0.36073       -0.18176
O         -2.57111       -0.60243       -0.44410
C         -0.83067        0.99426       -0.42940
C         -0.31026        1.82499        0.74055
C          0.65479        1.23940       -0.24056
H          2.64585       -1.17806       -0.84783
H          2.40004        0.47290        0.72785
H          1.47333       -1.79998        1.21132
H          0.57375       -0.52583        1.99921
H         -0.18297       -2.00629       -0.57884
H         -1.04539       -2.14320        0.94791
H         -1.35842        1.54635       -1.19881
H         -0.50971        2.88936        0.69586
H         -0.37233        1.40900        1.73931
H          1.12275        1.91806       -0.94638
