19
../xyz/dsC7O2H10nsd_0664.xyz
O          2.42749        0.31748       -0.50715
C          1.35299       -0.05807       -0.12077
C          0.60856       -1.32431       -0.57433
C         -0.74854       -1.23707        0.15389
C         -0.36633       -0.53207        1.47694
C          0.46211        0.63943        0.92194
C         -0.49020        1.58198        0.15395
O         -1.09558        0.92151       -0.94841
C         -1.71289       -0.31315       -0.60828
H          0.54394       -1.35507       -1.66524
H          1.18120       -2.20168       -0.25153
H         -1.22012       -2.21183        0.30438
H         -1.23897       -0.20249        2.04970
H          0.23461       -1.18387        2.12023
H          1.04981        1.20088        1.65058
H         -1.25658        1.96959        0.84613
H          0.05699        2.42884       -0.26871
H         -2.61785       -0.13860       -0.00209
H         -2.02243       -0.75810       -1.55900
