19
../xyz/dsC7O2H10nsd_5412.xyz
C          2.29521       -1.30142        0.40303
O          1.16263       -1.33909       -0.44826
C          0.00018       -0.92186        0.17484
C         -1.09377       -0.39802       -0.69818
C         -2.54325       -0.76607       -0.47644
C         -0.37715        0.56651        0.24256
O         -1.14519        0.97645        1.34503
C          0.51902        1.55213       -0.29562
C          1.27975        2.39602       -0.69328
H          2.15774       -1.95132        1.28039
H          3.14365       -1.66737       -0.17917
H          2.50586       -0.28015        0.74514
H         -0.29054       -1.48709        1.06404
H         -0.78992       -0.27905       -1.73407
H         -2.75844       -1.74523       -0.91703
H         -2.78251       -0.80316        0.58782
H         -3.20776       -0.03144       -0.94183
H         -0.53637        1.24105        2.04372
H          1.93879        3.14114       -1.06463
