19
../xyz/dsC7O2H10nsd_4670.xyz
C          3.03201       -0.36974        0.25134
O          1.64451       -0.65683        0.05077
C          0.85073        0.42906       -0.11246
O          1.26824        1.56314       -0.09935
C         -0.56649        0.06205       -0.27769
C         -1.04151       -1.27501       -0.80092
C         -1.41715       -0.90211        0.59200
C         -2.56448        0.11503        0.60016
C         -1.70912        1.08079       -0.28562
H          3.17591        0.24756        1.14197
H          3.52113       -1.33638        0.37458
H          3.44638        0.16053       -0.61007
H         -1.79126       -1.28375       -1.58924
H         -0.26784       -2.02733       -0.89492
H         -1.07069       -1.47649        1.44228
H         -3.50818       -0.24024        0.17425
H         -2.76315        0.52941        1.59026
H         -2.11023        1.33350       -1.27175
H         -1.43808        2.00222        0.23053
