19
../xyz/dsC7O2H10nsd_5863.xyz
C          2.72203       -1.55411        0.03446
C          1.92632       -0.30079       -0.40254
C          2.42848        0.90447        0.39807
O          3.10349        1.78703       -0.05751
C          0.49166       -0.45840       -0.18581
C         -0.68755       -0.56890        0.03698
C         -2.12068       -0.68264        0.27383
C         -2.89960        0.54183       -0.22069
O         -4.26566        0.30234        0.06827
H          3.78661       -1.41996       -0.17669
H          2.59551       -1.74010        1.10518
H          2.36193       -2.43255       -0.50593
H          2.13644       -0.08736       -1.45654
H          2.12455        0.88694        1.46900
H         -2.52095       -1.57293       -0.22637
H         -2.32269       -0.81282        1.34394
H         -2.52551        1.44263        0.28817
H         -2.72625        0.67344       -1.29905
H         -4.77618        1.05900       -0.23366
