19
../xyz/dsC7O2H10nsd_3900.xyz
C          2.78985       -1.05205        0.31251
C          1.94647        0.00236       -0.37304
O          0.67892       -0.55839       -0.84723
C         -0.04751        0.27600        0.06503
C         -1.24784       -0.32193        0.73960
C         -2.38892       -0.55258       -0.23831
O         -3.53491       -0.25357       -0.02370
C          0.16589        1.72201       -0.27149
C          1.20450        0.97440        0.54381
H          3.04880       -1.84675       -0.39329
H          3.71895       -0.60969        0.68899
H          2.25021       -1.49745        1.15361
H          2.49567        0.46337       -1.20422
H         -0.96945       -1.29765        1.16248
H         -1.60628        0.31797        1.55024
H         -2.08569       -1.03725       -1.19195
H          0.37638        2.01120       -1.29771
H         -0.43190        2.43024        0.29423
H          1.51654        1.27251        1.53634
