19
../xyz/dsC7O2H10nsd_3520.xyz
C          1.47091        1.88823       -0.20249
C          0.58571        0.68610       -0.17271
C         -0.74678        0.62128        0.01257
C         -1.74508        1.71245        0.23046
C         -1.19786       -0.79266       -0.04080
O         -2.34373       -1.17359        0.04788
C          0.03718       -1.67469       -0.24049
C          1.21423       -0.69015       -0.35919
O          2.28299       -0.91947        0.55619
H          0.95402        2.80334        0.09247
H          2.33161        1.73331        0.45641
H          1.87910        2.03601       -1.21111
H         -1.29240        2.70601        0.21534
H         -2.52373        1.67062       -0.53881
H         -2.25829        1.57682        1.18880
H          0.16895       -2.34358        0.61617
H         -0.09298       -2.31176       -1.11968
H          1.69329       -0.75453       -1.34334
H          1.91648       -0.87521        1.44708
