19
../xyz/dsC7O2H10nsd_1191.xyz
C         -2.89025       -0.71624        0.45948
C         -1.65967       -0.17314       -0.23020
C         -0.99588        1.08686        0.23781
O         -0.53284        1.96429       -0.74926
C         -0.29808       -0.24280        0.43125
C          0.93286       -0.55727       -0.40214
O          1.14155       -1.95554       -0.57389
C          2.11875        0.10565        0.16154
C          3.07259        0.64599        0.65707
H         -2.97510       -1.79910        0.31929
H         -2.85885       -0.52391        1.53717
H         -3.80129       -0.25235        0.06625
H         -1.63802       -0.30248       -1.30960
H         -1.40328        1.57065        1.12629
H          0.30023        2.34014       -0.44147
H         -0.25405       -0.62301        1.44997
H          0.77119       -0.17045       -1.41300
H          1.38078       -2.32157        0.28482
H          3.92686        1.11776        1.07665
