19
../xyz/dsC7O2H10nsd_2646.xyz
O         -1.73266       -1.78358       -0.26049
C         -1.26823       -0.63948        0.40233
C         -1.26823        0.63951       -0.40233
O         -1.73246        1.78364        0.26056
C          0.02341       -0.00004       -0.00007
C          1.23951        0.50549        0.79998
C          1.86131        0.90814       -0.57436
C          1.23961       -0.50554       -0.79999
C          1.86128       -0.90817        0.57440
H         -1.19258       -2.52848        0.02266
H         -1.58595       -0.52963        1.44056
H         -1.58611        0.52963       -1.44050
H         -1.19279        2.52862       -0.02319
H          1.22879        1.08637        1.72219
H          1.39178        1.73969       -1.10623
H          2.95258        0.97013       -0.61416
H          1.22900       -1.08641       -1.72221
H          1.39173       -1.73973        1.10623
H          2.95255       -0.97013        0.61430
