19
../xyz/dsC7O2H10nsd_2841.xyz
C          2.28511        1.13474       -0.14981
C          1.32023       -0.03687       -0.04957
O          2.01331       -1.27125       -0.10129
C          0.24462       -0.04220        1.04876
C         -0.67583        0.95260        0.25821
C         -1.88879        0.01524        0.42372
O         -2.95295        0.06628       -0.49109
C         -0.71189       -0.95250        0.19907
C         -0.01768        0.02123       -0.82851
H          1.77246        2.09701       -0.07215
H          3.03679        1.07523        0.64358
H          2.81200        1.11933       -1.11286
H          2.62399       -1.24337       -0.84520
H          0.37273       -0.07973        2.13149
H         -0.63402        2.04180        0.29283
H         -2.34709       -0.00478        1.41753
H         -2.58562        0.06108       -1.38177
H         -0.69632       -2.04011        0.16417
H         -0.17247        0.05984       -1.90975
