19
../xyz/dsC7O2H10nsd_1882.xyz
C          1.71275       -1.76846       -0.16500
C          0.62542       -0.75105       -0.04381
O          0.50848       -0.02093        1.18421
C          0.61382        0.73704       -0.02973
C          1.67346        1.78616       -0.11719
C         -0.80962        0.73974       -0.67567
O         -1.92306        0.80073        0.22748
C         -1.99361       -0.64821        0.30174
C         -0.79823       -0.80338       -0.66731
H          1.46850       -2.66668        0.41396
H          1.84939       -2.06888       -1.20894
H          2.65806       -1.37023        0.21322
H          1.40333        2.65539        0.49313
H          2.63131        1.40302        0.24545
H          1.80024        2.12600       -1.15027
H         -0.92926        1.35582       -1.57156
H         -1.84213       -1.01390        1.32104
H         -2.94772       -1.01313       -0.09576
H         -0.91904       -1.39684       -1.57195
