19
../xyz/dsC7O2H10nsd_5643.xyz
C          3.22403        0.28186        0.20886
C          2.04121       -0.66173        0.43855
C          0.87648       -0.40474       -0.52279
O          0.37114        0.92784       -0.34404
C         -0.96491        0.88513       -0.04503
O         -1.62002        1.87018        0.15497
C         -1.39229       -0.54228       -0.02443
C         -2.80405       -0.91468        0.27777
C         -0.32167       -1.28535       -0.30831
H          3.63083        0.16760       -0.80198
H          2.91698        1.32348        0.33208
H          4.02984        0.07533        0.91896
H          2.35605       -1.70520        0.31146
H          1.66657       -0.56537        1.46413
H          1.24033       -0.47781       -1.55858
H         -3.48497       -0.45528       -0.44675
H         -2.94919       -1.99717        0.26066
H         -3.09895       -0.53386        1.26136
H         -0.26924       -2.36517       -0.37646
