19
../xyz/dsC7O2H10nsd_5190.xyz
C          2.74528       -0.34528       -0.15691
C          1.73845        0.80789       -0.12302
C          0.30112        0.36144        0.00710
C         -0.77503        1.44224        0.08392
O         -2.01498        0.72708        0.03510
C         -1.72489       -0.57242       -0.41819
C         -0.70303       -1.37990        0.36268
O          0.06664       -0.50340        1.18103
C         -0.32321       -0.70836       -0.93409
H          3.76943        0.03654       -0.19428
H          2.63950       -0.96730        0.73500
H          2.59366       -0.98257       -1.03386
H          1.96362        1.47037        0.72265
H          1.82443        1.42044       -1.02989
H         -0.72257        1.99194        1.02864
H         -0.70617        2.15065       -0.75643
H         -2.56272       -1.07038       -0.89122
H         -0.79012       -2.41913        0.65922
H          0.02556       -1.05355       -1.89778
