19
../xyz/dsC7O2H10nsd_5242.xyz
C         -2.76350       -0.31409        0.14901
O         -1.81141        0.57194       -0.41556
C         -0.50009        0.19385       -0.21189
C          0.15596       -1.03108       -0.85329
C          1.53836       -0.79214       -0.20675
C          1.86584        0.65866       -0.63348
C          0.58130        1.25762       -0.07602
C          0.23891        0.35854        1.10164
O          1.22440       -0.65366        1.19321
H         -2.60070       -0.44587        1.22753
H         -3.74664        0.13234       -0.01539
H         -2.73843       -1.30208       -0.33084
H         -0.28699       -1.97794       -0.53264
H          0.18211       -0.98495       -1.94533
H          2.30383       -1.55408       -0.33669
H          2.76496        1.03897       -0.14129
H          1.96845        0.76476       -1.71685
H          0.33786        2.31096       -0.08398
H         -0.18907        0.68347        2.03902
