19
../xyz/dsC7O2H10nsd_2869.xyz
C          1.50344        1.73337        0.02427
C          0.49911        0.79806       -0.64111
C         -0.96585        1.11405       -0.36336
C         -1.28453        0.31327        0.89694
O         -0.11988       -0.39123        1.27606
C          0.41732       -0.63403       -0.02971
C          1.61295       -1.53931        0.00284
O         -0.67959       -1.21270       -0.74615
C         -1.66012       -0.23715       -0.45489
H          1.39768        2.75371       -0.35756
H          1.35133        1.75628        1.10655
H          2.53288        1.41510       -0.17170
H          0.68834        0.71225       -1.71583
H         -1.44239        2.05219       -0.61199
H         -1.94542        0.59302        1.70375
H          1.96574       -1.72733       -1.01392
H          2.41942       -1.07992        0.57851
H          1.34460       -2.49085        0.46669
H         -2.65036       -0.44261       -0.83357
