19
../xyz/dsC7O2H10nsd_4606.xyz
C          1.70100        1.78075        0.08356
C          1.11642        0.37166        0.04157
C          1.71178       -0.64912        1.06039
C          2.21038       -1.40039       -0.18585
O          1.68045       -0.39134       -1.07018
C         -0.34209        0.40352       -0.01174
C         -1.54670        0.44251       -0.04220
C         -3.00707        0.42989       -0.11524
O         -3.58156       -0.83515        0.18216
H          1.40740        2.33623       -0.81116
H          1.33740        2.32081        0.96315
H          2.79263        1.72833        0.12123
H          2.49101       -0.22782        1.69753
H          0.97869       -1.17162        1.67377
H          3.29691       -1.50172       -0.28853
H          1.74559       -2.37855       -0.35913
H         -3.42550        1.12686        0.61954
H         -3.32193        0.79067       -1.10761
H         -3.15559       -1.48417       -0.38760
