19
../xyz/dsC7O2H10nsd_1326.xyz
C          2.21941       -1.39257        0.21364
C          1.26004       -0.22198        0.41829
C          1.72065        1.02546       -0.32858
O          1.46832        2.15517        0.00266
C         -0.17713       -0.56853       -0.04154
O         -0.40793       -1.60473       -0.62574
C         -1.23056        0.42446        0.29114
C         -2.59567       -0.12545        0.69410
C         -2.43187        0.50869       -0.64146
H          2.28001       -1.66262       -0.84396
H          3.22298       -1.14139        0.56965
H          1.86850       -2.27515        0.75210
H          1.18466        0.06967        1.47299
H          2.31480        0.81227       -1.24576
H         -0.89369        1.33950        0.76121
H         -2.67465       -1.20594        0.72911
H         -3.12724        0.40988        1.47218
H         -2.40077       -0.14538       -1.50507
H         -2.84682        1.49521       -0.81138
