19
../xyz/dsC7O2H10nsd_0663.xyz
O         -2.41968        0.39191       -0.51344
C         -1.35713       -0.01804       -0.12546
C         -0.62872       -1.27984       -0.62021
C          0.72576       -1.23707        0.11228
C          0.35157       -0.57840        1.45682
C         -0.46460        0.62406        0.94923
C          0.52423        1.58869        0.24696
C          1.25310        0.86902       -0.90067
O          1.69990       -0.43815       -0.55713
H         -1.20285       -2.15901       -0.30529
H         -0.55677       -1.30976       -1.71017
H          1.18725       -2.22054        0.21647
H         -0.25555       -1.25520        2.06800
H          1.23832       -0.29157        2.02693
H         -1.06061        1.14689        1.69883
H         -0.00215        2.46126       -0.15368
H          1.24497        1.94409        0.99178
H          0.59207        0.82349       -1.78030
H          2.14835        1.41970       -1.20172
