19
../xyz/dsC7O2H10nsd_3320.xyz
C         -2.92420       -1.04280        0.10144
C         -1.69155       -0.21769        0.39729
C         -1.04070        0.56471       -0.71415
O         -0.29425        1.71174       -0.40336
C          0.64610        1.37347        0.60962
C          0.91199       -0.15824        0.50828
C          2.12221       -0.43819       -0.35844
O          3.07550       -1.08967       -0.01785
C         -0.35399       -0.66278       -0.18146
H         -2.99991       -1.90294        0.77541
H         -3.83447       -0.44438        0.21345
H         -2.90458       -1.42832       -0.92363
H         -1.66990        0.23225        1.38658
H         -1.50147        0.63075       -1.69318
H          1.54251        1.98222        0.45188
H          0.25055        1.61184        1.60540
H          1.08775       -0.60167        1.49215
H          2.06982        0.02341       -1.37222
H         -0.30931       -1.59057       -0.74172
