19
../xyz/dsC7O2H10nsd_5174.xyz
C         -2.81699       -0.58607        0.09042
C         -1.38167       -0.17742       -0.00598
C         -0.21591       -1.13671       -0.37250
C          0.69580       -0.07974        0.25291
C          2.15028       -0.17377        0.59037
O          2.97036       -0.33015       -0.56016
C         -0.01056        1.25562       -0.09091
O         -1.14450        0.96503       -0.89836
C         -0.45133        0.47900        1.09642
H         -3.43686        0.24871        0.42928
H         -3.18054       -0.90815       -0.89147
H         -2.93346       -1.41883        0.79044
H         -0.23435       -2.04834        0.23174
H         -0.10347       -1.37920       -1.43365
H          2.44818        0.70835        1.18332
H          2.34811       -1.05543        1.21073
H          2.73866        0.37468       -1.17427
H          0.48424        2.21353       -0.19244
H         -0.55513        0.70019        2.15014
