19
../xyz/dsC7O2H10nsd_4469.xyz
O          0.85202       -1.37596        1.05692
C          1.11708       -0.92280       -0.25916
C          2.04634        0.32214       -0.27330
C          1.13890        1.55302        0.08018
C         -0.24542        0.98913       -0.05958
C         -1.43897        1.12016        0.50238
C         -2.27924       -0.08656        0.15551
O         -1.41002       -0.97043       -0.56434
C         -0.18909       -0.31185       -0.81138
H          1.67610       -1.70890        1.42486
H          1.50879       -1.73554       -0.88599
H          2.87903        0.19819        0.42553
H          2.48313        0.44374       -1.27044
H          1.32049        1.92545        1.09163
H          1.33106        2.38534       -0.60558
H         -1.77610        1.89504        1.17948
H         -2.64929       -0.59490        1.05761
H         -3.15651        0.15407       -0.46712
H         -0.05036       -0.17075       -1.89853
