19
../xyz/dsC7O2H10nsd_3148.xyz
C         -1.53371        2.02726        0.18073
C         -1.05392        0.70175       -0.39434
C         -1.92197       -0.52282       -0.05380
O         -1.25042       -1.67888       -0.56785
C         -0.83140       -1.15855        0.70086
C          0.11933        0.02106        0.42084
C          1.39800       -0.29605       -0.29895
C          2.70253       -0.28829        0.37670
O          2.31487        0.79314       -0.47076
H         -1.77080        1.93778        1.24717
H         -0.76295        2.79647        0.07203
H         -2.43576        2.37721       -0.33291
H         -0.85524        0.79091       -1.46670
H         -2.99759       -0.58709        0.06819
H         -0.84687       -1.84138        1.54283
H          0.32945        0.59663        1.32774
H          1.28297       -0.92432       -1.18157
H          2.75651       -0.05363        1.43959
H          3.51157       -0.91284        0.00011
