19
../xyz/dsC7O2H10nsd_0134.xyz
C          2.08079        0.10530        0.01033
C          0.99610       -0.01595        1.05446
C          1.05006       -0.98371       -0.10854
C         -0.18538       -0.75191       -0.97225
O         -1.34113       -1.08113       -0.21652
C         -1.43949       -0.28973        0.97816
C         -0.31528        0.76529        0.98298
C         -0.42912        1.51127       -0.34949
O         -0.25287        0.58409       -1.43149
H          2.06296        0.91082       -0.71276
H          3.07471       -0.19663        0.32198
H          1.28607       -0.36284        2.04117
H          1.33234       -2.01974        0.04302
H         -0.21995       -1.38171       -1.86262
H         -2.42773        0.18797        0.98335
H         -1.37038       -0.94512        1.85706
H         -0.43959        1.46126        1.81763
H         -1.41929        1.97861       -0.43924
H          0.32672        2.30029       -0.43939
