19
dsC7O2H10nsd_6013.xyz
O         -3.77960       -0.15959        0.11013
C         -2.43757       -0.56878       -0.09791
C         -1.45899        0.60927       -0.15135
C         -0.02275        0.16210       -0.33414
C          0.76076       -0.18733        0.90938
C          2.19694       -0.70003        0.56771
O          2.36990       -0.73323       -0.85732
C          2.49078        0.52206       -0.17143
C          1.06737        1.09070        0.13754
H         -4.04595        0.36975       -0.64836
H         -2.19008       -1.21952        0.74705
H         -2.33915       -1.17715       -1.01147
H         -1.74071        1.27086       -0.98328
H         -1.56958        1.19755        0.76745
H          0.17012       -0.42317       -1.22698
H          0.30627       -0.28471        1.88677
H          2.81953       -1.35692        1.16285
H          3.40590        1.08411       -0.31294
H          0.88213        2.11382        0.43763
