19
dsC7O2H10nsd_1893.xyz
O         -1.16950        1.82996       -0.41095
C         -1.11484        0.55510        0.11504
C         -0.37424        0.16811        1.35767
C         -0.02782       -0.53358        0.05296
C         -1.10596       -1.57859       -0.26149
C         -2.20061       -0.45712       -0.22335
C          1.32007       -0.44828       -0.55726
C          2.57036       -0.43148        0.21851
O          2.02659        0.78092       -0.31413
H         -0.32938        2.26747       -0.23114
H          0.37085        0.89434        1.67091
H         -0.85048       -0.37404        2.17405
H         -0.99942       -2.01840       -1.25655
H         -1.21151       -2.38809        0.46872
H         -2.63071       -0.27378       -1.20998
H         -3.01041       -0.56444        0.50519
H          1.38002       -0.78818       -1.59309
H          2.52145       -0.52706        1.30177
H          3.50112       -0.75981       -0.24173
