19
dsC7O2H10nsd_2682.xyz
O          0.16142        2.41153       -0.24715
C         -0.16332        1.10411       -0.58720
C         -0.97240        0.21122        0.36901
C         -2.06143       -0.61360       -0.18441
O         -3.09535       -0.87028        0.38521
C          0.48829       -0.08221        0.01245
C          1.68699       -0.02758        0.96933
C          2.43291       -0.99541        0.00136
C          1.09001       -1.28307       -0.73322
H          0.48165        2.42862        0.66105
H         -0.43852        1.05652       -1.63740
H         -1.16003        0.60727        1.36390
H         -1.86694       -0.99448       -1.21552
H          2.14545        0.95505        1.12326
H          1.47903       -0.47348        1.94591
H          3.15145       -0.47216       -0.63305
H          2.93028       -1.85132        0.46068
H          1.09919       -1.23157       -1.82510
H          0.64357       -2.23531       -0.43208
