19
dsC7O2H10nsd_1584.xyz
C          2.08311        0.09292       -0.75561
C          0.82510       -0.46338       -0.11164
O          0.56284       -1.69723       -0.71274
C          0.82350       -0.38278        1.43641
O         -0.03755        0.77518        1.41173
C         -0.38329        0.56527        0.01781
C         -0.38337        1.86438       -0.77501
C         -1.66820       -0.12951       -0.10433
C         -2.69569       -0.74839       -0.20723
H          1.92821        0.26893       -1.82356
H          2.39592        1.02500       -0.28010
H          2.88895       -0.63906       -0.64599
H         -0.34274       -1.95263       -0.49100
H          0.33993       -1.24787        1.90957
H          1.77499       -0.17359        1.93617
H         -1.18577        2.51563       -0.41719
H          0.56660        2.38765       -0.65432
H         -0.55330        1.66355       -1.83679
H         -3.62204       -1.26228       -0.29107
