19
dsC7O2H10nsd_5042.xyz
C          3.07933       -0.24883       -0.17252
C          1.73112        0.20675       -0.75160
C          0.57018       -0.08446        0.15459
C          0.13902        0.79262        1.28810
C         -0.86686        0.64841        0.18443
O         -1.36195        1.75692       -0.44348
C         -1.45244       -0.70524        0.07437
O         -2.48941       -1.05280       -0.43508
C         -0.11376       -1.44964        0.31699
H          3.29057        0.25486        0.77616
H          3.08572       -1.32768        0.01384
H          3.89606       -0.02318       -0.86491
H          1.76049        1.28474       -0.95214
H          1.56605       -0.28472       -1.71915
H         -0.04949        0.38450        2.27922
H          0.58007        1.78644        1.29575
H         -1.93373        1.44328       -1.15715
H          0.01682       -1.94827        1.28196
H          0.07871       -2.16068       -0.49119
