19
dsC7O2H10nsd_3843.xyz
C         -2.54442       -0.49555       -0.28458
C         -1.08773       -0.14822       -0.09513
C         -0.07134       -1.05374       -0.76498
C          1.38430       -0.69719       -0.40533
O          1.72243       -1.15715        0.90071
C          1.63973        0.78950       -0.53960
C          0.68708        1.68447       -0.26972
C         -0.66604        1.24843        0.14999
O         -0.73323        0.27617        1.23433
H         -2.80675       -0.50072       -1.34772
H         -2.75576       -1.49198        0.11836
H         -3.18520        0.22428        0.23083
H         -0.24695       -2.09511       -0.47273
H         -0.21418       -0.98921       -1.85129
H          2.05214       -1.24391       -1.07879
H          1.11050       -0.69888        1.49441
H          2.64180        1.10887       -0.80901
H          0.87421        2.75197       -0.33605
H         -1.43285        2.01627        0.22779
