19
dsC7O2H10nsd_2489.xyz
C          1.06323        1.73618        0.83558
C          0.29525        0.61245        0.15170
C         -0.73074        1.06975       -0.90390
C         -1.80116       -0.03056       -0.85228
O         -1.83271       -0.47748        0.50175
C         -0.51976       -0.41696        1.01910
C          0.43266       -1.57641        0.58481
C          1.17410       -0.57396       -0.31181
O          2.09476       -0.65329       -1.07359
H          1.71343        1.35570        1.63033
H          1.69789        2.26065        0.11429
H          0.37426        2.46233        1.27991
H         -1.15515        2.03251       -0.60014
H         -0.28986        1.18709       -1.89716
H         -2.80446        0.31720       -1.10999
H         -1.54502       -0.85903       -1.53145
H         -0.58559       -0.24300        2.09440
H          1.06202       -1.97617        1.38631
H         -0.04546       -2.41410        0.06907
