19
dsC7O2H10nsd_5829.xyz
C          3.42428        0.17149       -0.30077
C          2.16863       -0.69349       -0.43014
C          1.05547       -0.25601        0.53375
O          0.67613        1.10123        0.28143
C         -0.72704        1.20283        0.03999
C         -1.23368       -0.21439        0.10253
C         -2.62819       -0.59682       -0.11940
O         -3.50976        0.19353       -0.37596
C         -0.22011       -1.03468        0.39521
H          3.18434        1.22131       -0.48644
H          3.85383        0.09667        0.70449
H          4.19045       -0.13997       -1.01662
H          1.77740       -0.64546       -1.45321
H          2.40785       -1.74520       -0.22619
H          1.44310       -0.33198        1.56581
H         -1.20062        1.84117        0.79958
H         -0.91169        1.66889       -0.93717
H         -2.83333       -1.68672       -0.03574
H         -0.27847       -2.11034        0.51464
