19
dsC7O2H10nsd_2363.xyz
O         -0.57255        1.91156       -0.56521
C         -0.55688        0.64259        0.00783
C         -1.92550        0.23760        0.58791
C         -1.81971       -1.16073       -0.08877
C         -0.47536       -0.76504       -0.75269
C          0.73537       -1.12244        0.11005
O          1.97691       -0.70230       -0.49651
C          2.01687        0.49952        0.30063
C          0.63599        0.22193        0.90729
H          0.27150        2.06911       -1.00211
H         -2.01529        0.26250        1.67763
H         -2.71574        0.85601        0.15711
H         -1.75391       -2.01000        0.59815
H         -2.62050       -1.36636       -0.80123
H         -0.36488       -0.89089       -1.82996
H          0.80108       -2.11992        0.55469
H          2.83860        0.47300        1.02808
H          2.13670        1.40745       -0.30900
H          0.52294        0.32446        1.98701
