19
dsC7O2H10nsd_3987.xyz
C         -2.77660       -0.65283       -0.41965
C         -1.88460        0.28601        0.37702
C         -1.08207        1.39619       -0.38301
C          0.23652        0.89854        0.27009
C          0.93991       -0.21516       -0.51685
O          0.09012       -1.23772        0.05322
C         -0.54831       -0.27296        0.92927
C          2.39064       -0.47993       -0.15874
O          3.21075        0.38286        0.01850
H         -3.23006       -1.41308        0.22557
H         -3.58664       -0.10014       -0.90707
H         -2.20013       -1.17211       -1.19033
H         -2.44866        0.73405        1.20291
H         -1.10063        1.31806       -1.47445
H         -1.36120        2.41578       -0.10977
H          0.87325        1.60890        0.79300
H          0.85625       -0.16466       -1.61406
H         -0.49339       -0.58410        1.97580
H          2.63131       -1.56297       -0.06416
