19
dsC7O2H10nsd_2261.xyz
O         -2.56057        0.38253       -0.32789
C         -1.24072        0.02736       -0.12151
C         -0.53580       -1.13873       -0.81277
C          0.41790       -1.25063        0.42911
C          1.82891       -0.73559        0.15196
O          1.79524        0.41525       -0.67778
C          1.03455        1.48804       -0.14526
C         -0.31111        1.07314        0.41976
C         -0.45737       -0.22515        1.18011
H         -3.10010       -0.41296       -0.25282
H         -1.19913       -2.00883       -0.86896
H         -0.08359       -0.96306       -1.79146
H          0.44467       -2.24337        0.88276
H          2.34844       -0.52066        1.10172
H          2.42143       -1.47280       -0.39944
H          1.60404        1.99024        0.65737
H          0.91761        2.20367       -0.96614
H         -0.86793        1.89619        0.86172
H         -0.78104       -0.28125        2.21217
