19
dsC7O2H10nsd_3155.xyz
C          2.50469       -0.47531        0.18616
C          1.04056       -0.27827       -0.09583
O          0.34024       -1.43459       -0.61252
C         -0.05480       -0.90342        0.66541
C         -1.35146       -0.09986        0.52757
O         -2.34746       -0.84845       -0.14244
C         -0.92120        1.14335       -0.25814
C          0.12250        2.03997        0.35756
C          0.52866        1.01281       -0.67188
H          2.87938        0.31630        0.84285
H          2.68271       -1.44372        0.65966
H          3.08197       -0.43932       -0.74406
H          0.10980       -1.56521        1.51208
H         -1.77196        0.15718        1.50585
H         -1.89488       -1.26751       -0.88696
H         -1.66063        1.57668       -0.92100
H          0.12669        3.08172        0.05676
H          0.40667        1.87592        1.39354
H          0.88430        1.33666       -1.64415
