19
dsC7O2H10nsd_0989.xyz
C          4.30010       -0.57998        0.07586
C          2.90276       -0.18878        0.02071
C          1.74676        0.15605       -0.02718
C          0.35492        0.54027       -0.08006
O          0.02171        1.69876       -0.26747
C         -0.65135       -0.58144        0.12104
C         -2.08303       -0.19603       -0.28831
C         -3.05652       -1.35014       -0.08548
O         -2.55508        0.89730        0.47794
H          4.78537       -0.14950        0.95861
H          4.41241       -1.66788        0.12303
H          4.83889       -0.21802       -0.80640
H         -0.30357       -1.46755       -0.42342
H         -0.63248       -0.84863        1.18754
H         -2.06501        0.06964       -1.35894
H         -2.76991       -2.22010       -0.68429
H         -3.08499       -1.64376        0.96890
H         -4.06315       -1.04039       -0.37797
H         -1.93247        1.61801        0.30970
