19
dsC7O2H10nsd_4987.xyz
C          2.31293       -1.15670       -0.02991
O          1.30361       -0.57120        0.78646
C          0.13622       -0.26009        0.08426
C         -0.76264       -1.31604       -0.46559
C         -2.04705       -0.97832       -0.32777
C         -2.22694        0.34620        0.38774
C         -0.79396        0.82607        0.61123
C          0.09285        1.09997       -0.58747
O          1.19440        1.93892       -0.41748
H          2.55713       -0.51617       -0.88692
H          3.19754       -1.27533        0.59987
H          2.01046       -2.14528       -0.39905
H         -0.39589       -2.21270       -0.95097
H         -2.88647       -1.55497       -0.69988
H         -2.80547        1.05781       -0.21578
H         -2.77731        0.22365        1.33029
H         -0.53145        1.35899        1.51835
H         -0.34344        1.20222       -1.57713
H          1.72225        1.55354        0.29447
