19
dsC7O2H10nsd_2383.xyz
O         -0.37026        1.75716        0.44931
C         -0.88987        0.55190        0.01193
C         -2.12369        0.39413       -0.87902
C         -2.43749       -0.96056       -0.15520
C         -1.21724       -0.75811        0.74819
C          0.02593       -0.62638       -0.11606
C          1.36460       -0.55493        0.59892
C          2.40110        0.19210       -0.21909
O          3.49211       -0.23760       -0.49491
H         -1.06250        2.24026        0.91428
H         -2.88663        1.14988       -0.66896
H         -1.94640        0.36800       -1.95919
H         -3.38810       -0.93869        0.38172
H         -2.41243       -1.85440       -0.78666
H         -1.13891       -1.02347        1.79594
H          0.05408       -1.16930       -1.06229
H          1.24229       -0.00457        1.54074
H          1.75184       -1.55219        0.82829
H          2.07186        1.19915       -0.55711
