19
dsC7O2H10nsd_5210.xyz
C         -2.95391       -0.40278       -0.37232
C         -1.96290       -0.02749        0.73646
C         -0.55095        0.05604        0.23664
C          0.25492       -1.15532       -0.32455
C          1.47907       -0.28747       -0.02994
O          2.80376       -0.65798        0.03669
C          1.00667        1.15482       -0.31433
O         -0.33520        1.09258       -0.78634
C          0.74048        0.52774        1.01536
H         -3.97844       -0.41527        0.01014
H         -2.90263        0.31852       -1.19238
H         -2.73566       -1.39465       -0.78110
H         -2.23431        0.94224        1.16963
H         -1.99972       -0.76243        1.54986
H          0.21196       -2.01540        0.34912
H          0.03836       -1.45228       -1.35590
H          3.16563       -0.65875       -0.85682
H          1.65315        1.96790       -0.61887
H          0.95289        0.80016        2.03964
