19
dsC7O2H10nsd_1384.xyz
C          2.67542       -1.34419        0.13597
C          1.57393       -0.31510        0.46091
C          0.22453       -0.79921       -0.08070
O         -0.78871        0.10136        0.38662
C         -2.03503       -0.12006       -0.08633
C         -2.99940        0.90563        0.45749
O         -2.31040       -1.01919       -0.83930
C          1.91555        1.00763       -0.06017
C          2.21819        2.08055       -0.50912
H          2.78492       -1.46745       -0.94549
H          3.63627       -1.01416        0.53663
H          2.43219       -2.31736        0.57347
H          1.47704       -0.24131        1.55228
H          0.22037       -0.82338       -1.17416
H          0.00782       -1.80954        0.28183
H         -2.69253        1.90748        0.14370
H         -4.00214        0.69145        0.09008
H         -2.98856        0.89082        1.55085
H          2.47836        3.03456       -0.89602
