19
dsC7O2H10nsd_1341.xyz
O         -1.73318        1.76573        0.15661
C         -1.23237        0.50184       -0.24650
C         -2.20935       -0.53899        0.29062
O         -2.29827       -1.65738       -0.14209
C          0.15932        0.23352        0.29290
C          1.32045        0.70578       -0.55272
C          2.63871        0.50330        0.20504
C          2.30733       -1.02207        0.33331
C          0.99660       -0.78492       -0.42716
H         -1.02804        2.41029        0.03988
H         -1.21756        0.39930       -1.34349
H         -2.82667       -0.17349        1.14112
H          0.23136        0.31223        1.37862
H          1.16926        1.36755       -1.39893
H          3.51903        0.68239       -0.41572
H          2.74861        1.06892        1.13609
H          3.01385       -1.64327       -0.22067
H          2.20656       -1.42620        1.34557
H          0.55118       -1.45523       -1.15154
