19
dsC7O2H10nsd_0767.xyz
O          0.50143        2.04408       -0.76597
C          0.19992        1.26130        0.10313
C         -1.22755        1.12621        0.61500
C         -1.96325        0.01666       -0.17363
C         -1.35501       -1.38333       -0.06078
O         -0.03836       -1.46771       -0.60727
C          0.96859       -1.17141        0.31017
C          2.15971       -0.41814       -0.20011
C          1.17450        0.27479        0.70336
H         -1.22573        0.88003        1.68376
H         -1.74402        2.07896        0.47127
H         -3.00113       -0.03546        0.17695
H         -1.99436        0.29884       -1.23187
H         -1.35225       -1.72342        0.98597
H         -1.96425       -2.08813       -0.63592
H          1.12016       -1.93849        1.07071
H          3.13855       -0.67859        0.18580
H          2.13731       -0.11827       -1.24177
H          1.43970        0.47709        1.73817
