19
dsC7O2H10nsd_1120.xyz
C         -2.89011       -0.65928       -0.28271
C         -1.70886        0.24873        0.00272
O         -1.74342        1.43654       -0.22901
C         -0.46685       -0.43526        0.55722
C          0.60449        0.54254        1.13269
C          1.56736        0.12069        0.02128
O          2.49418        0.94394       -0.58057
C          1.79838       -1.35096        0.03204
C          0.51294       -0.82406       -0.57488
H         -3.65992       -0.11603       -0.83189
H         -2.57396       -1.54298       -0.84764
H         -3.30762       -1.02338        0.66372
H         -0.75421       -1.27327        1.20250
H          0.25659        1.57163        1.01334
H          0.93548        0.37555        2.16239
H          2.03888        1.74359       -0.86903
H          2.52813       -1.68304       -0.69975
H          1.78703       -1.92517        0.95675
H          0.23942       -1.02517       -1.60390
