19
dsC7O2H10nsd_1314.xyz
C         -2.87292        0.30464        0.39816
C         -1.36010        0.32569        0.20428
O         -1.10599        0.97523       -1.02988
C         -0.78585       -1.10849        0.21177
C          0.70899       -1.21576       -0.03750
O          1.18047       -1.95056       -0.86667
C          1.64979       -0.36155        0.85707
C          1.81713        0.98618        0.32874
C          1.93858        2.09036       -0.13476
H         -3.34964       -0.24116       -0.42206
H         -3.14454       -0.17694        1.34228
H         -3.26214        1.32577        0.39909
H         -0.90777        0.89424        1.03175
H         -0.18666        1.26999       -1.02784
H         -0.98374       -1.56172        1.19434
H         -1.28477       -1.71398       -0.54952
H          1.25850       -0.31426        1.88043
H          2.61523       -0.87593        0.87940
H          2.07599        3.07025       -0.52202
