19
dsC7O2H10nsd_3891.xyz
O         -1.49223       -1.57059       -0.62322
C         -1.41355       -0.59761        0.41584
C         -0.04586       -0.63726        1.12330
C          0.97589        0.08664        0.27471
C          2.32807       -0.44150        0.07596
O          1.33350       -0.61701       -0.94034
C          0.66111        1.55413        0.07000
C         -0.80103        1.74497       -0.25423
C         -1.71898        0.79002       -0.10618
H         -0.72614       -1.42948       -1.19411
H         -2.19288       -0.89196        1.12833
H         -0.11853       -0.14550        2.10110
H          0.24332       -1.67949        1.28354
H          3.14034        0.23406       -0.19032
H          2.63437       -1.34969        0.59385
H          0.92958        2.12703        0.97034
H          1.28374        1.94545       -0.74248
H         -1.08840        2.72040       -0.63960
H         -2.74933        0.97366       -0.39849
