19
dsC7O2H10nsd_4059.xyz
C          2.59162       -0.16034        0.48429
C          1.36882       -0.19931       -0.42346
O          0.81692        1.13025       -0.59175
C         -0.44688        1.12186        0.01929
C         -1.55138        0.21951       -0.64412
C         -2.03738       -0.11425        0.78295
C         -0.52479       -0.00368        1.09132
C          0.15724       -0.98272        0.09804
O         -0.79826       -0.95474       -0.99184
H          3.05480       -1.15091        0.54929
H          3.33101        0.53750        0.08177
H          2.33231        0.16871        1.49513
H          1.63990       -0.57957       -1.41428
H         -0.75026        2.12919        0.30121
H         -2.19475        0.51575       -1.47046
H         -2.61055        0.68745        1.25439
H         -2.53211       -1.07811        0.91122
H         -0.11029        0.08770        2.09314
H          0.34714       -2.00811        0.41741
