19
dsC7O2H10nsd_2025.xyz
O          1.95348       -0.97043       -0.78048
C          1.08043       -0.27595        0.07208
C          1.66844        0.94520        0.70670
C          0.62646        1.09475       -0.38685
C         -0.79240        1.56975       -0.11203
C         -1.77957        0.43099        0.04941
O         -1.65944       -0.66856       -0.86459
C         -1.34585       -0.88967        0.51736
C          0.10586       -1.15985        0.84769
H          1.42766       -1.28896       -1.52367
H          1.37795        1.17775        1.72749
H          2.69477        1.18658        0.45558
H          1.03198        1.37975       -1.35167
H         -0.84328        2.19233        0.79116
H         -1.12977        2.20847       -0.93596
H         -2.80989        0.73272        0.24293
H         -2.06913       -1.51550        1.04195
H          0.23935       -1.05023        1.93141
H          0.34780       -2.20232        0.61512
