19
dsC7O2H10nsd_0757.xyz
O          1.14075       -1.46253        1.13319
C          1.00850       -0.85639        0.10622
C          1.82733        0.33352       -0.35046
C          0.84835        1.51145       -0.62212
C         -0.12569        1.70253        0.51764
C         -1.30679        1.09703        0.68564
C         -1.98075        0.10415       -0.23959
C         -1.30326       -1.27697       -0.26452
O          0.01587       -1.10321       -0.80004
H          2.54637        0.57007        0.43667
H          2.37996        0.09135       -1.26483
H          1.42950        2.42562       -0.78047
H          0.31194        1.29732       -1.55011
H          0.21078        2.36523        1.31292
H         -1.84897        1.31758        1.60251
H         -3.02649       -0.02711        0.05930
H         -1.99118        0.48088       -1.26968
H         -1.24024       -1.72905        0.72893
H         -1.83075       -1.95788       -0.93738
