19
dsC7O2H10nsd_3769.xyz
O         -2.70807       -0.73884       -0.66233
C         -1.68138        0.13385       -0.27890
C         -1.40415        0.36800        1.18633
C         -0.49330       -0.52222        0.35606
C          0.93388       -0.19737        0.02461
C          2.03215       -1.03538        0.68634
C          1.74316       -1.23699       -0.75887
C          1.33897        1.20003       -0.25681
O          0.61337        2.16587       -0.27542
H         -3.54379       -0.27387       -0.54905
H         -1.50024        0.97012       -0.94857
H         -1.04947        1.34895        1.47485
H         -2.04668       -0.13370        1.90191
H         -0.65155       -1.58398        0.52695
H          2.95425       -0.53654        0.96580
H          1.69051       -1.77701        1.39910
H          2.46350       -0.87822       -1.48659
H          1.19508       -2.11918       -1.06876
H          2.43004        1.30768       -0.46615
