19
dsC7O2H10nsd_5055.xyz
C          2.76130       -0.64826        0.03857
C          1.39922       -0.94266       -0.60607
C          0.27677       -0.21097        0.07503
C         -0.45935       -0.70230        1.34075
C         -1.23138       -0.35825        0.11829
C         -2.21373       -1.16529       -0.65891
O         -1.40105        1.09917        0.10100
C         -0.02936        1.26012       -0.04057
O          0.56276        2.27100       -0.24576
H          2.97425        0.42413        0.01028
H          2.77794       -0.96778        1.08549
H          3.56380       -1.17135       -0.48956
H          1.42589       -0.65789       -1.66477
H          1.19422       -2.01995       -0.57895
H         -0.31348       -1.76158        1.53696
H         -0.53262       -0.07461        2.22330
H         -1.91528       -2.21743       -0.66729
H         -3.20981       -1.09933       -0.20870
H         -2.27938       -0.80991       -1.69130
