19
dsC7O2H10nsd_2108.xyz
C         -2.40638        0.10014       -0.65792
C         -1.04619       -0.24935       -0.11660
C         -0.84600       -0.72834        1.35481
C          0.55857       -0.14646        1.25314
C          1.05640       -0.40726       -0.20672
O          2.39397       -0.34929       -0.53863
C         -0.06026       -1.15460       -0.92586
C          0.17756        0.76526        0.11493
O          0.31250        2.12290        0.00044
H         -3.04969       -0.78684       -0.70706
H         -2.90581        0.84015       -0.02350
H         -2.34180        0.51725       -1.66920
H         -1.46999       -0.16344        2.05455
H         -0.96160       -1.80203        1.54522
H          1.28827        0.05257        2.02827
H          2.84572       -1.09793       -0.13364
H         -0.07412       -0.91790       -1.99460
H         -0.15460       -2.23829       -0.78437
H          0.56966        2.33125       -0.90489
