19
dsC7O2H10nsd_3968.xyz
O         -1.63977       -0.49392        1.40429
C         -1.49440        0.17820        0.17681
C         -1.30608       -0.78328       -1.07196
C          0.17777       -0.59850       -0.84447
C          1.33059       -1.21122       -0.60115
C          2.15294       -0.38933        0.39263
C          1.10225        0.57901        1.03197
C         -0.01319        0.65008       -0.02387
O         -0.07968        1.86301       -0.76732
H         -2.50047       -0.92360        1.41247
H         -2.23394        0.97802        0.04734
H         -1.70881       -1.79548       -0.98029
H         -1.68269       -0.31745       -1.98691
H          1.64154       -2.19207       -0.94499
H          2.61435       -1.03704        1.14589
H          2.98121        0.14894       -0.08947
H          0.71091        0.13589        1.95137
H          1.50277        1.56758        1.27173
H          0.73149        1.93270       -1.28270
