19
dsC7O2H10nsd_2372.xyz
C         -1.26660        1.92938       -0.29384
C         -0.88131        0.49980       -0.10628
O         -1.65004       -0.49427       -0.80762
C         -1.59226       -1.37971        0.34433
C         -0.67961       -0.41918        1.09327
C          0.47143       -0.05440        0.18908
C          1.39403       -0.90749       -0.67361
O          2.52955       -0.09930       -0.27925
C          1.72340        0.72114        0.59112
H         -1.12341        2.22934       -1.33825
H         -2.31789        2.08855       -0.03593
H         -0.65158        2.58193        0.33233
H         -2.58536       -1.48704        0.79444
H         -1.19433       -2.36943        0.08976
H         -0.68312       -0.21736        2.15729
H          1.51240       -1.95441       -0.36417
H          1.20965       -0.86720       -1.75345
H          2.02652        0.62584        1.64288
H          1.75657        1.78113        0.30562
