19
dsC7O2H10nsd_4146.xyz
C         -1.91887        1.39050        0.75889
C         -1.08497        0.67300       -0.28169
O         -1.76754       -0.46527       -0.89559
C         -0.65623       -1.30952       -0.63697
C         -0.40783       -1.47827        0.80879
C          0.10200       -0.20982        0.13065
C          1.55282        0.08289        0.06359
C          1.95722        1.48370       -0.36216
O          2.38089       -0.76785        0.32207
H         -1.37242        2.25706        1.14660
H         -2.85025        1.74972        0.31042
H         -2.17090        0.73498        1.59614
H         -0.79468        1.36606       -1.08139
H         -0.30689       -1.96353       -1.42768
H         -1.23866       -1.42628        1.50516
H          0.40562       -2.14505        1.07361
H          3.03967        1.58619       -0.28122
H          1.65314        1.67077       -1.39835
H          1.46367        2.24018        0.25828
