19
dsC7O2H10nsd_0954.xyz
O         -4.12829       -0.26220        0.33745
C         -3.13165       -0.20143       -0.33442
C         -1.83594        0.45084        0.08138
C         -0.64812       -0.50809       -0.04748
C          0.70195        0.20350       -0.03819
O          0.78721        1.41275       -0.09680
C          1.90506       -0.67205        0.02898
C          3.10866       -0.14450        0.80154
C          3.16157       -0.19148       -0.68469
H         -3.10602       -0.64585       -1.35944
H         -1.65247        1.30866       -0.57924
H         -1.93648        0.83442        1.09933
H         -0.65704       -1.26555        0.74595
H         -0.70294       -1.07577       -0.98946
H          1.72372       -1.74056        0.05926
H          2.97534        0.82521        1.26686
H          3.68000       -0.86645        1.37326
H          3.06364        0.74711       -1.21771
H          3.77169       -0.94635       -1.16682
