19
dsC7O2H10nsd_4702.xyz
C         -3.86021        0.08976       -0.00025
O         -2.61888       -0.62638       -0.00011
C         -1.50978        0.14188        0.00011
O         -1.53274        1.34678        0.00027
C         -0.26297       -0.71959        0.00016
C          1.02469        0.10283       -0.00003
C          2.27798       -0.79427        0.00013
C          3.52057       -0.03201       -0.00006
C          4.53184        0.61746       -0.00021
H         -3.94045        0.72371       -0.88697
H         -4.64159       -0.67028       -0.00249
H         -3.94252        0.72041        0.88867
H         -0.31333       -1.38290        0.87283
H         -0.31344       -1.38322       -0.87225
H          1.04411        0.76026       -0.87396
H          1.04413        0.76063        0.87361
H          2.25681       -1.45588        0.87669
H          2.25678       -1.45625       -0.87615
H          5.42972        1.18392       -0.00034
