19
dsC7O2H10nsd_5798.xyz
O          3.13466       -0.01835       -0.45318
C          1.97216        0.76486       -0.26552
C          0.99851        0.06114        0.66363
O          0.57169       -1.22999        0.09696
C         -0.83140       -0.94666        0.44680
C         -1.94934       -0.86261       -0.60278
C         -2.54507        0.56343       -0.33298
C         -1.33605        1.34377        0.18798
C         -0.45167        0.47910        0.67134
H          2.83187       -0.87947       -0.76545
H          2.29210        1.71537        0.17584
H          1.46430        0.98019       -1.21727
H          1.46010       -0.10341        1.64615
H         -1.10551       -1.54780        1.32385
H         -1.50050       -0.88605       -1.60084
H         -2.69156       -1.66273       -0.53741
H         -2.95809        1.01763       -1.23940
H         -3.36672        0.52171        0.39465
H         -1.21966        2.41318        0.05878
