19
dsC7O2H10nsd_3057.xyz
O          0.52069        1.92743       -0.39364
C          1.10158        0.65599       -0.50583
C          1.49188       -0.20291        0.72524
O          1.43982       -1.37465       -0.20801
C          0.18616       -0.59998       -0.44918
C         -1.14531       -0.83054       -1.10142
C         -2.03536        0.10745       -0.19326
C         -1.27900        0.38387        1.17786
C         -0.01459       -0.47682        1.05335
H          1.22281        2.58327       -0.43783
H          1.83939        0.59793       -1.31311
H          2.36664       -0.15927        1.37644
H         -1.20366       -0.55900       -2.15820
H         -1.44089       -1.87921       -0.99543
H         -2.20360        1.05496       -0.70948
H         -3.01496       -0.34697       -0.02614
H         -1.07621        1.44772        1.27761
H         -1.88492        0.07258        2.03222
H         -0.12098       -1.45668        1.52653
