19
dsC7O2H10nsd_2935.xyz
C          2.88678        0.37399        0.08267
C          1.64461       -0.50609        0.05292
C          0.49928       -0.27327       -0.97445
C         -0.39391       -1.13519       -0.03276
O         -1.78812       -0.97426       -0.14329
C         -2.17526        0.30915        0.28081
O         -1.32737        1.30893       -0.22430
C          0.02744        0.93153       -0.10577
C          0.39916       -0.18545        0.93108
H          2.66856        1.44258        0.01783
H          3.44962        0.20828        1.00767
H          3.54917        0.12160       -0.75229
H          1.93887       -1.56049        0.12058
H          0.54686       -0.32406       -2.06261
H         -0.17994       -2.20515        0.02080
H         -3.18233        0.49892       -0.09680
H         -2.17079        0.34663        1.38385
H          0.61568        1.84746       -0.12568
H          0.35948       -0.14112        2.02042
