19
dsC7O2H10nsd_2278.xyz
C          2.35122        0.18043        0.27603
C          0.85793        0.14484        0.02460
C          0.24668        1.51324       -0.34430
C         -1.25691        1.46653       -0.23601
C         -1.88163        0.37811        0.20927
C         -1.05181       -0.81621        0.61951
C         -0.53718       -1.59003       -0.60928
O          0.56211       -0.78679       -1.03288
O          0.19456       -0.36920        1.16523
H          2.70639       -0.82604        0.50672
H          2.87192        0.54532       -0.61315
H          2.57984        0.84223        1.11539
H          0.65395        2.30045        0.30478
H          0.54998        1.76260       -1.36823
H         -1.81245        2.35369       -0.52789
H         -2.96320        0.31317        0.27105
H         -1.54432       -1.44469        1.36356
H         -0.19556       -2.59643       -0.33150
H         -1.26976       -1.66386       -1.41854
