19
dsC7O2H10nsd_5091.xyz
C          3.03800       -0.56379       -0.02442
C          1.99642        0.27949       -0.77387
C          0.65066        0.22649       -0.12532
O          0.41808        0.93452        1.09490
C         -0.46441        1.16726       -0.00505
C         -1.50235       -0.03325       -0.08242
C         -2.87467        0.00955       -0.66451
O         -1.20570       -0.92172        0.99548
C         -0.38678       -0.97740       -0.17498
H          4.01201       -0.50920       -0.51897
H          3.15358       -0.20760        1.00307
H          2.74084       -1.61680        0.01796
H          2.31960        1.32534       -0.81923
H          1.90369       -0.07120       -1.80994
H         -0.59350        2.18373       -0.35963
H         -2.86633        0.50419       -1.64168
H         -3.26894       -1.00250       -0.78821
H         -3.55624        0.56697       -0.01195
H         -0.28488       -1.92536       -0.69109
