19
dsC7O2H10nsd_3953.xyz
O         -2.38364       -0.46210       -0.74654
C         -1.57868        0.17025        0.22914
C         -0.67918        1.26117       -0.48710
C          0.62872        0.61125       -0.07688
C          0.42763        0.34171        1.46109
C         -0.49105       -0.76147        0.89580
C          0.45647       -0.89385       -0.31894
C          2.01306       -0.80575       -0.39289
O          1.97089        0.65774       -0.55010
H         -2.89452       -1.15149       -0.30899
H         -2.20160        0.62331        1.01368
H         -0.86080        1.24378       -1.56330
H         -0.85143        2.26863       -0.10013
H          1.32668       -0.02738        1.95249
H         -0.03321        1.12979        2.06285
H         -0.88354       -1.58548        1.49701
H          0.00725       -1.23480       -1.25116
H          2.58758       -1.09896        0.49131
H          2.44373       -1.27233       -1.28185
