19
dsC7O2H10nsd_5486.xyz
C         -2.74875       -0.00975       -0.40105
O         -1.58250       -0.60562        0.11873
C         -0.68254        0.31551        0.67415
C          0.07649        1.30796       -0.21044
C          1.26023        0.62629       -0.87060
O          1.23434       -0.75901       -1.10478
C          1.10812       -1.40010        0.17218
C          0.67225       -0.29241        1.13330
C          1.37017        0.97463        0.56693
H         -2.52373        0.67966       -1.22792
H         -3.38522       -0.81355       -0.77821
H         -3.30100        0.54674        0.37342
H         -1.16104        0.86050        1.50315
H         -0.27659        2.28106       -0.53387
H          1.79793        1.17809       -1.63255
H          0.36119       -2.19308        0.08786
H          2.07298       -1.83447        0.47303
H          0.77146       -0.53896        2.18917
H          2.09338        1.61827        1.04744
