19
dsC7O2H10nsd_0985.xyz
O         -4.53002       -0.20318       -0.41790
C         -3.56156       -0.24073        0.29510
C         -2.28245        0.53007        0.06022
C         -1.05620       -0.38229        0.04152
O          0.09482        0.43146        0.04919
C          1.29858       -0.30331       -0.00320
C          2.45422        0.70265        0.01469
C          3.75348        0.04692       -0.03758
C          4.81169       -0.52075       -0.08160
H         -3.55473       -0.87087        1.21615
H         -2.36698        1.10106       -0.86700
H         -2.15797        1.23546        0.89380
H         -1.06163       -1.05017        0.92059
H         -1.07048       -1.02562       -0.85343
H          1.37907       -0.98702        0.85666
H          1.34492       -0.91627       -0.91687
H          2.33693        1.38568       -0.83491
H          2.37195        1.31492        0.92049
H          5.75386       -1.00875       -0.12065
