19
dsC7O2H10nsd_0817.xyz
O         -3.16599        0.00031       -0.61113
C         -2.20277       -0.00024        0.11346
C         -0.77937       -0.00012       -0.36661
C          0.12161       -1.00927        0.39631
C          1.40203       -1.29278       -0.39707
C          2.25577        0.00026       -0.45766
C          1.40173        1.29309       -0.39659
C          0.12139        1.00900        0.39668
O          0.38992       -0.00030        1.41309
H         -2.30993       -0.00081        1.22154
H         -0.74594        0.00011       -1.45769
H         -0.34469       -1.90305        0.82008
H          1.97740       -2.09046        0.08333
H          1.13048       -1.65468       -1.39550
H          2.91654        0.00018        0.41196
H          2.90042        0.00050       -1.34048
H          1.97692        2.09072        0.08410
H          1.13010        1.65530       -1.39488
H         -0.34513        1.90251        0.82077
