19
dsC7O2H10nsd_0321.xyz
C          0.66423       -1.31492       -0.96001
C         -0.50316       -1.46443        0.10248
C          0.47339       -0.91199        1.16873
C          1.08053       -0.17753       -0.01588
O          1.99311        0.90258        0.06126
C          0.64327        1.15451       -0.39374
C         -0.57457        1.66257        0.33398
C         -1.70072        0.75492       -0.24665
O         -1.66921       -0.66129       -0.01960
H          1.29134       -2.21132       -0.93135
H          0.41163       -1.06103       -1.99076
H         -0.88763       -2.47669        0.23435
H          0.04675       -0.36374        2.00814
H          1.14899       -1.68925        1.53902
H          0.62108        1.37071       -1.46348
H         -0.49358        1.57825        1.41879
H         -0.82762        2.70181        0.09536
H         -2.66940        1.06691        0.15580
H         -1.73059        0.93531       -1.33272
