19
dsC7O2H10nsd_2691.xyz
C         -2.26022       -0.94963       -0.62129
C         -1.22421       -0.13419        0.13158
O         -1.90091        0.81447        0.91588
C         -0.12979       -0.98651        0.84852
C          0.84461       -0.68905       -0.33691
C          2.23226       -0.39906       -0.04982
C          3.38683       -0.17488        0.19914
C         -0.09559        0.47622       -0.77893
O          0.36673        1.71069       -0.26412
H         -2.91508       -1.47093        0.08353
H         -2.87848       -0.29555       -1.24392
H         -1.78582       -1.69684       -1.26502
H         -1.22569        1.44619        1.19836
H          0.20512       -0.50476        1.76923
H         -0.35502       -2.03552        1.05239
H          0.78338       -1.48710       -1.08430
H          4.40450        0.03330        0.41813
H         -0.30268        0.54583       -1.85387
H         -0.18012        2.40672       -0.64229
