19
dsC7O2H10nsd_5057.xyz
C         -2.66837       -0.77620        0.21063
C         -1.38555       -0.93558       -0.61943
C         -0.25086       -0.14486       -0.05414
O          0.37197       -0.59148        1.18291
C          1.22651       -0.35137        0.06271
C          2.09717       -1.45499       -0.44122
C          1.52639        1.15928        0.11225
C         -0.00901        1.36371       -0.05651
O         -0.69917        2.31353       -0.28395
H         -3.48600       -1.35748       -0.22464
H         -2.50922       -1.12182        1.23602
H         -2.97546        0.27285        0.24813
H         -1.09230       -1.99043       -0.66909
H         -1.56242       -0.60014       -1.64851
H          2.95836       -1.59784        0.22066
H          1.54202       -2.39565       -0.48307
H          2.47642       -1.22213       -1.44111
H          1.98407        1.51647        1.03708
H          2.06445        1.55970       -0.75291
