19
dsC7O2H10nsd_0201.xyz
C          2.13131        0.44654       -0.04714
C          1.00256       -0.14864       -0.85690
O          0.45385       -1.44400       -0.73445
C         -0.56539       -1.27149        0.27563
C          0.18870       -0.48759        1.34688
C          0.69407        0.61552        0.40133
C         -0.38872        1.64110        0.19090
O         -1.46595        0.97681       -0.49715
C         -1.75802       -0.38532       -0.16691
H          2.75695       -0.17327        0.58727
H          2.65475        1.27014       -0.52555
H          0.79746        0.31832       -1.81508
H         -0.93095       -2.26634        0.54703
H         -0.44403       -0.09424        2.14689
H          0.99170       -1.08245        1.78750
H         -0.74560        2.07222        1.13837
H         -0.08687        2.46180       -0.46707
H         -2.49462       -0.42741        0.65344
H         -2.22905       -0.80186       -1.06270
