19
dsC7O2H10nsd_4716.xyz
C          2.17393       -1.78374        0.21686
O          0.98554       -1.23508       -0.31527
C          0.62589        0.02049        0.24505
C          1.61543        1.06668       -0.05764
C          2.42090        1.92032       -0.31790
C         -0.74252        0.37615       -0.29130
C         -1.68757        1.24103        0.51617
C         -1.97145       -0.21886        0.34530
O         -3.06496       -0.55263       -0.45462
H          2.09402       -1.94062        1.30422
H          2.32208       -2.75030       -0.26997
H          3.04431       -1.14381        0.02062
H          0.56115       -0.07816        1.34399
H          3.12960        2.67846       -0.54410
H         -0.77963        0.50262       -1.36837
H         -1.36848        1.59591        1.49030
H         -2.31647        1.92830       -0.03713
H         -1.81580       -0.86327        1.21151
H         -2.84311       -1.35990       -0.93118
