19
dsC7O2H10nsd_3069.xyz
O         -2.21854       -1.05245       -0.60194
C         -0.95874       -0.42476       -0.57950
C         -0.94705        1.09460       -0.18878
C         -0.82776        0.61985        1.29585
C         -0.12485       -0.64669        0.71952
C          1.36410       -0.34772        0.45734
O          2.01032       -1.41421       -0.23438
C          1.49365        0.96741       -0.28361
C          0.39353        1.65329       -0.60433
H         -2.60503       -1.01606        0.27897
H         -0.49284       -0.66925       -1.53858
H         -1.79755        1.70673       -0.49147
H         -0.25809        1.25723        1.97599
H         -1.79604        0.39346        1.75347
H         -0.24116       -1.60691        1.22877
H          1.89517       -0.29725        1.41717
H          1.67131       -1.42208       -1.13637
H          2.49307        1.30125       -0.54540
H          0.43963        2.59030       -1.15098
