19
dsC7O2H10nsd_4764.xyz
C          2.29874       -1.70298        0.23728
C          1.16598       -0.79416        0.71858
C          0.69611        0.16935       -0.39405
O          1.76126        0.94617       -0.87646
C         -0.41230        1.08461        0.11393
O         -0.23484        2.28186        0.15454
C         -1.72910        0.48617        0.62734
C         -2.19722       -0.70447       -0.06689
C         -2.59066       -1.68206       -0.64415
H          1.96342       -2.34900       -0.58152
H          3.13799       -1.10520       -0.12535
H          2.65361       -2.34546        1.04858
H          0.31618       -1.39925        1.05422
H          1.50513       -0.19440        1.57262
H          0.27576       -0.43396       -1.21433
H          1.53288        1.86349       -0.65734
H         -1.57253        0.25864        1.69187
H         -2.47415        1.28707        0.59077
H         -2.93896       -2.54494       -1.15632
