19
dsC7O2H10nsd_1468.xyz
C         -1.73859        1.17014       -0.47073
C         -0.87165       -0.00005       -0.00002
C         -1.73865       -1.17020        0.47069
C          0.22034        0.40985        1.02813
O          0.88005        1.53234        0.36922
C          1.40395        0.55349       -0.52469
C          1.40406       -0.55334        0.52469
O          0.88032       -1.53230       -0.36918
C          0.22041       -0.40993       -1.02811
H         -2.39832        1.51248        0.33400
H         -1.13410        2.01865       -0.79346
H         -2.37541        0.85390       -1.30457
H         -2.37532       -0.85399        1.30465
H         -2.39853       -1.51238       -0.33398
H         -1.13420       -2.01881        0.79325
H         -0.04066        0.59854        2.06836
H          2.20735        0.87330       -1.18528
H          2.20754       -0.87300        1.18527
H         -0.04054       -0.59868       -2.06834
