19
dsC7O2H10nsd_3215.xyz
O         -2.19117       -1.11103        0.29393
C         -1.16057       -0.50640       -0.46281
C         -1.03002        1.04992       -0.32837
C         -0.28406        1.33224        1.04496
C          0.82382        0.53186        0.31565
C          2.14603       -0.25462        0.30018
O          1.43634       -1.35770       -0.36026
C          0.19449       -0.83962        0.20071
C          0.35616        1.22154       -0.99184
H         -3.03580       -0.82134       -0.06463
H         -1.22127       -0.79034       -1.52212
H         -1.89356        1.64891       -0.62429
H         -0.09694        2.40125        1.16925
H         -0.69868        0.90184        1.95937
H          2.96377        0.13192       -0.31475
H          2.52260       -0.56550        1.28325
H         -0.00515       -1.33842        1.15871
H          0.68299        2.26300       -1.04642
H          0.54563        0.70902       -1.93862
