19
dsC7O2H10nsd_2440.xyz
C          1.57781       -1.50263       -0.78351
C          0.47958       -0.71445       -0.14271
C          0.22686       -0.21093        1.25043
O         -1.13583       -0.63105        1.28913
C         -1.05116       -0.94729       -0.14495
C         -1.67594        0.21036       -0.91933
C         -0.80227        1.42490       -0.49680
C          0.44542        0.78173        0.11396
O          1.67289        1.44001        0.06458
H          1.60114       -2.53656       -0.42249
H          1.46467       -1.52954       -1.87393
H          2.54438       -1.03991       -0.56479
H          0.81444       -0.24369        2.16256
H         -1.43905       -1.94633       -0.35535
H         -1.59821        0.01981       -1.99628
H         -2.73357        0.33611       -0.67278
H         -0.51212        2.04576       -1.34896
H         -1.32550        2.06479        0.22097
H          1.68557        2.10784        0.75880
