19
dsC7O2H10nsd_3033.xyz
C         -1.21557        1.96631        0.04328
C         -1.28021        0.56044       -0.51938
C         -1.72751       -0.61053        0.39714
C         -1.02184       -1.61632       -0.53966
C         -0.07910       -0.41382       -0.27297
O         -0.46184       -0.48231        1.16173
C          1.35824       -0.25303       -0.61901
C          2.40170       -0.34467        0.40984
O          2.00440        0.92134       -0.12286
H         -0.79583        1.95320        1.05035
H         -0.58707        2.60681       -0.58269
H         -2.21525        2.41310        0.08095
H         -1.69024        0.52774       -1.53451
H         -2.64329       -0.72968        0.97614
H         -0.71758       -2.55057       -0.06692
H         -1.41573       -1.74993       -1.55038
H          1.60736       -0.50697       -1.65046
H          2.10205       -0.52920        1.43849
H          3.40094       -0.67688        0.13266
