19
dsC7O2H10nsd_3390.xyz
O         -2.63881       -1.10980        0.10927
C         -1.51915       -0.33263        0.42250
C         -1.11692        0.75639       -0.54502
O         -0.32183        1.81897       -0.08760
C          0.84466        1.27893        0.53974
C          1.01816       -0.14703        0.00443
C          2.26206       -0.56558       -0.73601
C          1.98131       -1.10554        0.64858
C         -0.34138       -0.53470       -0.50751
H         -3.42491       -0.58271        0.28947
H         -1.32576       -0.18863        1.48639
H         -1.78355        1.03769       -1.35232
H          1.68997        1.93576        0.30957
H          0.70926        1.27008        1.63142
H          2.15453       -1.23940       -1.57996
H          3.05803        0.16377       -0.84822
H          1.68165       -2.14354        0.74466
H          2.59134       -0.74197        1.47028
H         -0.43783       -1.28339       -1.28481
