19
dsC7O2H10nsd_6006.xyz
C         -3.48724        0.14807        0.11008
O         -2.19554        0.25523       -0.43667
C         -1.25100       -0.56697        0.21738
C          0.09201       -0.39258       -0.46303
C          0.71463        0.98906       -0.25238
C          2.22881        0.72413       -0.22588
O          2.44131       -0.66545       -0.48115
C          1.29556       -0.90577        0.38152
C          1.43415        0.53031        1.01741
H         -3.50967        0.44689        1.17054
H         -4.14041        0.81511       -0.45787
H         -3.87928       -0.87915        0.03753
H         -1.18071       -0.29450        1.28530
H         -1.56711       -1.62399        0.16949
H          0.05665       -0.77619       -1.48818
H          0.28583        1.95788       -0.47008
H          2.99310        1.43574       -0.50780
H          1.31194       -1.87849        0.87041
H          1.50204        0.92096        2.02259
