19
dsC7O2H10nsd_6025.xyz
C         -3.55765       -0.15225        0.25030
C         -2.20549        0.08231       -0.42735
C         -1.06740       -0.70592        0.23430
C          0.28987       -0.46605       -0.43287
C          1.52864       -1.09163        0.23709
O          2.65662       -0.61954       -0.48466
C          2.14146        0.22135        0.57036
C          0.92031        0.91099       -0.02970
O          0.50092        2.03031       -0.00560
H         -4.35222        0.41397       -0.24493
H         -3.83817       -1.21142        0.22554
H         -3.53343        0.15899        1.30053
H         -2.26865       -0.20348       -1.48554
H         -1.95593        1.14844       -0.41046
H         -1.00810       -0.44107        1.29901
H         -1.29172       -1.78070        0.19873
H          0.24713       -0.66531       -1.50770
H          1.61575       -2.02421        0.78167
H          2.82657        0.52583        1.35249
