19
dsC7O2H10nsd_1931.xyz
C         -2.33130        1.47202        0.34212
C         -1.59948        0.24575       -0.09321
C         -2.18369       -1.10137       -0.38954
C         -1.04310       -0.98032        0.60434
C          0.23966       -0.68335       -0.16285
C          1.41264       -0.19704        0.68419
C          2.50906        0.42085       -0.15918
O          3.67525        0.12923       -0.07839
O         -0.39667        0.42765       -0.86293
H         -3.17944        1.20532        0.97903
H         -1.67484        2.14967        0.89668
H         -2.71991        2.01254       -0.52843
H         -3.15191       -1.30310        0.05848
H         -2.02066       -1.56004       -1.36132
H         -1.10420       -1.30705        1.63426
H          0.56755       -1.45500       -0.87172
H          1.04246        0.57243        1.37563
H          1.83662       -1.01826        1.27096
H          2.15293        1.18934       -0.87817
