19
dsC7O2H10nsd_1407.xyz
C         -0.68936       -1.69176       -0.96267
C         -0.87401       -0.54479        0.01261
C         -2.24871       -0.51047        0.66146
C          0.25322       -0.10134        0.98940
C          1.56285       -0.13734        0.26355
O          2.66973       -0.53311        0.43718
O          1.08849        0.57043       -0.83704
C         -0.19764        0.77659       -0.16669
C         -0.75476        2.15788       -0.26467
H         -0.76528       -2.65274       -0.44345
H         -1.47541       -1.66310       -1.72566
H          0.27341       -1.64768       -1.47304
H         -2.34379        0.29168        1.39854
H         -3.02810       -0.37150       -0.09557
H         -2.44779       -1.45732        1.17408
H          0.10331       -0.03373        2.05773
H         -0.03227        2.89244        0.10254
H         -0.98333        2.39857       -1.30858
H         -1.67598        2.25214        0.31422
