19
dsC7O2H10nsd_2656.xyz
C         -2.15944       -1.54504        0.36916
C         -1.37702       -0.26272        0.54311
C         -1.14512        0.68668       -0.61805
O         -1.15166        2.06426       -0.42415
C          0.01652       -0.09163       -0.03013
O          0.91087        0.71598        0.72754
C          2.25827        0.29664        0.47469
C          2.12900       -0.88386       -0.44813
C          0.84433       -1.09557       -0.72428
H         -3.22981       -1.36943        0.52132
H         -2.03857       -1.95661       -0.63860
H         -1.83839       -2.31415        1.08011
H         -1.49757        0.24287        1.49846
H         -1.52757        0.39608       -1.59455
H         -0.32417        2.27055        0.03401
H          2.82897        1.12414        0.02582
H          2.74232        0.04533        1.43004
H          2.97818       -1.44271       -0.81839
H          0.43369       -1.86493       -1.36351
