19
dsC7O2H10nsd_1212.xyz
C          0.97248       -1.23608       -1.21558
C          0.88750       -0.32718        0.01964
C          1.11571       -1.10651        1.31393
O          1.90044        0.66748       -0.04064
C         -0.48845        0.38088        0.05194
C         -0.59261        1.73936        0.61788
O         -0.54165        1.54600       -0.80111
C         -1.66141       -0.45923        0.03130
C         -2.62249       -1.18156        0.03077
H          0.22721       -2.03467       -1.17876
H          0.80252       -0.65568       -2.12864
H          1.96928       -1.68114       -1.26950
H          0.34690       -1.87123        1.44895
H          2.09406       -1.59361        1.28234
H          1.09662       -0.43133        2.17379
H          1.66145        1.25077       -0.77357
H         -1.55219        2.07821        1.00125
H          0.29673        2.18510        1.05445
H         -3.47717       -1.81237        0.02439
