19
dsC7O2H10nsd_2965.xyz
C          3.08181       -0.08784       -0.64652
C          1.76738        0.34668       -0.03379
C          1.01132       -0.65294        0.77813
O         -0.11579       -0.04820        1.41757
C         -0.73659        0.22937        0.11846
C         -1.20052        1.65789       -0.06185
C         -1.86671       -0.78100       -0.06582
O         -2.84359       -0.59581       -0.74243
C          0.51519       -0.29699       -0.60768
H          3.28940        0.46146       -1.57061
H          3.91200        0.08760        0.04525
H          3.07231       -1.15531       -0.89225
H          1.71945        1.38391        0.28982
H          1.41590       -1.56199        1.20834
H         -1.75839        1.74166       -0.99787
H         -1.87057        1.94020        0.75593
H         -0.35772        2.35144       -0.07639
H         -1.69392       -1.73140        0.48512
H          0.51531       -0.85653       -1.53399
