19
dsC7O2H10nsd_1240.xyz
C         -3.01573       -0.33708       -0.55824
C         -1.71304        0.44901       -0.39658
C         -1.84808        1.59331        0.62876
C         -0.57852       -0.47076        0.02531
O         -0.69563       -1.56568        0.51637
O          0.62180        0.11331       -0.19994
C          1.76026       -0.66771        0.21579
C          2.97100        0.08571       -0.06119
C          3.99049        0.68208       -0.27621
H         -2.91848       -1.12085       -1.31433
H         -3.29444       -0.81932        0.38241
H         -3.82565        0.33375       -0.85971
H         -1.42036        0.89197       -1.35556
H         -0.91363        2.15157        0.72354
H         -2.63439        2.28592        0.31482
H         -2.11876        1.20051        1.61458
H          1.67093       -0.89885        1.28280
H          1.75602       -1.62422       -0.31806
H          4.89121        1.21123       -0.46780
