19
dsC7O2H10nsd_0304.xyz
C          2.02116       -0.67158        0.55092
C          1.52959        0.02146       -0.69359
C          0.85400        1.37226       -0.57612
O          0.05241        1.48750        0.59326
C         -0.93691        0.50215        0.75545
C         -2.01832        0.30839       -0.33368
O         -1.64008       -1.06945       -0.51974
C         -0.56345       -0.97513        0.45026
C          0.79188       -1.18337       -0.16719
H          2.92750       -1.26328        0.49025
H          1.87838       -0.15777        1.49569
H          2.10948       -0.10401       -1.60324
H          1.59393        2.17498       -0.49220
H          0.25554        1.56965       -1.47893
H         -1.34256        0.66661        1.75486
H         -3.05488        0.41074        0.00923
H         -1.88697        0.90780       -1.24293
H         -0.73411       -1.67709        1.27659
H          0.88737       -2.11710       -0.71375
