19
dsC7O2H10nsd_2771.xyz
C         -2.56980       -0.78935        0.72291
C         -1.47347       -0.51438       -0.31769
C         -1.43807        0.94191       -0.75553
C         -0.29341        1.55215       -0.43644
C          0.67171        0.60786        0.17748
O          1.54594        1.08518        1.14361
C          1.10484       -0.54975       -0.70293
O          2.27499       -1.20913       -0.28198
C         -0.06287       -0.73845        0.22896
H         -2.57197       -1.84390        1.01879
H         -2.41144       -0.18183        1.61948
H         -3.56013       -0.54900        0.32257
H         -1.65351       -1.16295       -1.18720
H         -2.27107        1.40402       -1.27381
H         -0.04033        2.58893       -0.62466
H          2.25057        0.42568        1.20872
H          0.94443       -0.51540       -1.78103
H          3.01626       -0.81480       -0.75521
H          0.09634       -1.41908        1.05866
