19
dsC7O2H10nsd_4836.xyz
O         -2.61222        0.97722        0.16357
C         -1.21982        1.03117       -0.11889
C         -0.57874       -0.37518       -0.04169
O         -1.57407       -1.37645       -0.11367
C          0.57909       -0.82756        0.81991
C          1.85892        0.05088        0.80689
C          1.82668        1.27715       -0.07495
C          1.94437       -0.07860       -0.70809
C          0.65249       -0.93107       -0.70884
H         -3.01969        0.47489       -0.55051
H         -1.03845        1.48292       -1.10477
H         -0.80021        1.68910        0.64332
H         -2.20051       -1.17180        0.59200
H          0.44249       -1.63893        1.52397
H          2.64821       -0.08840        1.53472
H          0.96842        1.92145       -0.20375
H          2.76479        1.82646       -0.06038
H          2.79984       -0.35693       -1.31034
H          0.54751       -1.82568       -1.30951
