19
dsC7O2H10nsd_1832.xyz
O         -2.46363        0.35941        0.20427
C         -1.08338        0.14705        0.00994
C         -0.44612       -0.74416        1.10738
C          0.42166       -1.39700       -0.00331
C         -0.64356       -0.93251       -1.03471
O          1.70396       -0.84038       -0.23478
C          1.99593        0.47662        0.20125
C          0.99756        1.57147       -0.10206
C         -0.32604        1.44280       -0.16922
H         -2.80509        0.84454       -0.55492
H          0.04221       -0.25521        1.95183
H         -1.18505       -1.45816        1.47853
H          0.58595       -2.47351        0.07627
H         -0.27162       -0.59415       -2.00348
H         -1.43302       -1.67904       -1.16222
H          2.20188        0.48215        1.28595
H          2.94620        0.71877       -0.28643
H          1.43893        2.55695       -0.23197
H         -0.93936        2.31981       -0.36508
