19
dsC7O2H10nsd_4301.xyz
C         -1.39385        1.93401        0.60950
C         -0.29276        1.06430        0.09124
C          0.75343        1.41389       -0.66499
C          1.64905        0.24823       -1.00201
C          1.16959       -0.85503       -0.02174
O          1.98871       -0.93448        1.13099
C         -0.28355       -0.43974        0.35420
C         -1.33428       -1.07976       -0.53404
O         -2.40898       -1.47045       -0.15692
H         -1.41210        1.93379        1.70663
H         -1.28392        2.96700        0.26936
H         -2.37460        1.56488        0.28668
H          0.94656        2.42462       -1.00940
H          1.53345       -0.06055       -2.04965
H          2.71622        0.44685       -0.85180
H          1.21205       -1.85322       -0.46673
H          1.98418       -0.06580        1.54975
H         -0.51411       -0.70310        1.39146
H         -1.05136       -1.13042       -1.61186
