19
dsC7O2H10nsd_3110.xyz
O          2.63438       -0.02510       -0.51379
C          1.23349        0.03626       -0.59352
C          0.48620       -1.03795        0.23342
C         -0.86355       -1.51917       -0.32240
C         -2.04188       -0.56608       -0.01871
C         -1.84184        0.89879       -0.34102
C         -0.73082        1.60721       -0.12916
C          0.54420        1.02080        0.39750
O          0.31590       -0.08453        1.32034
H          2.87220       -0.12787        0.41526
H          0.97904        0.13872       -1.64943
H          1.11860       -1.88029        0.53718
H         -0.76483       -1.66638       -1.40494
H         -1.10662       -2.49977        0.10174
H         -2.92291       -0.93225       -0.55637
H         -2.28105       -0.65208        1.04808
H         -2.70919        1.41672       -0.74391
H         -0.70549        2.66213       -0.39056
H          1.20323        1.77896        0.83396
