19
dsC7O2H10nsd_4933.xyz
O         -1.66741       -1.80888       -0.21350
C         -0.52779       -1.13757       -0.71298
C         -0.16677        0.09989        0.13317
C          0.37911       -0.29826        1.54593
C          1.82670       -0.18086        0.99783
C          1.28478        0.63846       -0.18707
O          1.86362        0.32296       -1.42723
C         -1.25261        1.06166        0.08639
C         -2.16500        1.84617        0.02866
H         -2.38733       -1.16707       -0.19108
H          0.29324       -1.85808       -0.68427
H         -0.66111       -0.83199       -1.76054
H          0.15139        0.45928        2.29790
H          0.04591       -1.27200        1.90733
H          2.57590        0.29809        1.63022
H          2.22058       -1.13908        0.65061
H          1.32839        1.71587        0.01681
H          1.55136        0.95433       -2.08344
H         -2.95852        2.55110       -0.00937
