19
dsC7O2H10nsd_5803.xyz
C         -2.73632       -0.68545       -0.40984
O         -1.32928       -0.70667       -0.35858
C         -0.77842        0.07041        0.67682
C         -0.66005        1.58964        0.27471
C          0.65723        1.64066       -0.49995
C          1.40993        0.62258       -0.10516
C          2.27223       -0.54002       -0.52804
O          1.34515       -1.43121        0.16804
C          0.71828       -0.29758        0.84196
H         -3.18116       -1.04196        0.53255
H         -3.13939        0.31689       -0.62034
H         -3.03705       -1.35608       -1.21834
H         -1.35857       -0.06522        1.60250
H         -1.50976        1.90219       -0.34089
H         -0.66484        2.23157        1.16605
H          0.84217        2.33090       -1.31404
H          2.33259       -0.74768       -1.60163
H          3.27483       -0.59397       -0.08390
H          1.01698       -0.27502        1.89939
