19
dsC7O2H10nsd_0212.xyz
C          2.15546       -0.38934        0.31630
C          1.38131        0.44884       -0.67540
C          0.46636        1.57247       -0.18717
C         -0.81251        1.00693        0.44065
O         -1.67709        0.48708       -0.56702
C         -1.54838       -0.93426       -0.55312
C         -0.33497       -1.16016        0.36006
O         -0.50417       -0.08260        1.28992
C          0.97098       -0.98533       -0.39456
H          3.14519       -0.73164        0.03460
H          2.03405       -0.15269        1.36767
H          1.87297        0.63380       -1.62452
H          0.97871        2.20495        0.54784
H          0.17405        2.21707       -1.02164
H         -1.35637        1.75457        1.02673
H         -2.45606       -1.39290       -0.13984
H         -1.39336       -1.29803       -1.57397
H         -0.37562       -2.09621        0.92263
H          1.15704       -1.72971       -1.16328
