19
dsC7O2H10nsd_3683.xyz
C         -2.61736        0.20943       -0.98415
C         -1.77212       -0.63605       -0.05781
C         -1.35903       -0.12222        1.32143
C         -0.35677       -0.28344        0.23242
O          0.67115       -1.30826        0.31054
C          1.60297       -0.46197       -0.24256
O          2.75208       -0.68256       -0.45181
C          0.61754        0.70365       -0.40807
C          0.96750        1.99374        0.32355
H         -2.48834       -0.09321       -2.02889
H         -3.68035        0.11808       -0.73771
H         -2.35184        1.26932       -0.90879
H         -1.96575       -1.70494       -0.09949
H         -1.64925        0.88607        1.60234
H         -1.32891       -0.83265        2.14014
H          0.40537        0.89477       -1.46479
H          0.14995        2.71784        0.25271
H          1.16647        1.80614        1.38248
H          1.86042        2.44625       -0.11673
