19
dsC7O2H10nsd_0906.xyz
O          3.22845        0.42232       -0.16490
C          2.33816       -0.38337       -0.07715
C          1.15538       -0.26409        0.86092
C         -0.14242       -0.09687        0.08173
C         -0.38162        1.24840       -0.67266
C         -1.76489        1.40461        0.03350
C         -1.56022        0.03852        0.72106
O         -2.05839       -1.06472       -0.06277
C         -0.75779       -1.31635       -0.63724
H          2.32373       -1.28974       -0.72715
H          1.10106       -1.17713        1.47001
H          1.32794        0.58959        1.52353
H          0.33995        2.02418       -0.40665
H         -0.40590        1.16659       -1.76247
H         -1.79925        2.24293        0.73443
H         -2.64466        1.44373       -0.61168
H         -1.79131       -0.06906        1.78498
H         -0.36099       -2.28795       -0.31047
H         -0.77060       -1.28909       -1.73415
