19
dsC7O2H10nsd_2847.xyz
C          2.82302       -0.22070        0.03592
C          1.33960       -0.01096       -0.04483
C          0.62023        1.15975       -0.72753
C         -0.64398        0.68597        0.02678
O         -1.71564        1.50779        0.30331
C          0.31569       -0.08869        1.06275
C          0.34221       -1.17375       -0.00043
C         -0.97274       -0.68995       -0.61649
O         -2.12164       -1.32157       -0.10981
H          3.32850        0.67280        0.42008
H          3.06855       -1.05479        0.70178
H          3.24836       -0.44615       -0.94893
H          0.99054        2.11788       -0.34213
H          0.57063        1.19881       -1.82291
H         -1.38261        2.34768        0.63672
H          0.42192       -0.11711        2.13820
H          0.67280       -2.19963        0.10545
H         -1.08169       -0.70634       -1.70638
H         -2.08298       -1.27287        0.85311
