19
dsC7O2H10nsd_3494.xyz
C         -0.76368        2.14270       -0.07011
C         -0.55122        0.70360       -0.54514
C         -1.79896       -0.15210       -0.62020
C         -1.56979       -1.41015       -0.24702
C         -0.12436       -1.61650        0.14385
C          0.38326       -0.16016        0.36857
O          0.29211        0.20121        1.73936
C          1.85375       -0.00094        0.01387
O          2.29039       -0.11201       -1.10277
H         -1.43708        2.66917       -0.75389
H         -1.20043        2.17966        0.93129
H          0.18086        2.69429       -0.04076
H         -0.08357        0.73089       -1.53961
H         -2.74434        0.23652       -0.98373
H         -2.29291       -2.21775       -0.26357
H          0.02336       -2.21207        1.05085
H          0.43303       -2.10548       -0.66541
H         -0.61638        0.04888        2.02203
H          2.50356        0.22364        0.88719
