19
dsC7O2H10nsd_5124.xyz
C         -2.65523       -0.80652        0.12701
O         -1.55299       -0.43674       -0.68600
C         -0.57074        0.24469       -0.00285
C         -0.68951        1.70409        0.34694
C          0.41720        1.25105       -0.58392
C          1.53393        0.62575        0.23597
O          2.23683       -0.40733       -0.47500
C          1.36464       -1.43423        0.04971
C          0.52266       -0.41356        0.83725
H         -3.13778        0.07472        0.57156
H         -3.36927       -1.32130       -0.51926
H         -2.35390       -1.48628        0.93644
H         -1.50625        2.21307       -0.15467
H         -0.46698        2.07851        1.34406
H          0.51065        1.61376       -1.59977
H          2.20342        1.27034        0.81272
H          0.83589       -1.98198       -0.73870
H          1.92176       -2.14224        0.67503
H          0.35407       -0.59362        1.89991
