19
dsC7O2H10nsd_4198.xyz
C          2.25162       -1.56340        0.13395
C          1.02747       -0.73061       -0.12283
C         -0.21704       -1.21520       -0.12719
C         -1.45443       -0.38127       -0.37532
O         -2.60467       -0.96049        0.23176
C         -1.26631        1.08084        0.06978
C          0.09763        1.64078       -0.31159
O          1.09946        1.62852        0.71448
C          1.23927        0.72197       -0.39894
H          2.80263       -1.18567        1.00415
H          1.99498       -2.61001        0.31672
H          2.94460       -1.52470       -0.71621
H         -0.40129       -2.27416        0.04262
H         -1.68748       -0.40409       -1.44898
H         -2.44225       -0.99499        1.18151
H         -2.07158        1.69544       -0.34255
H         -1.34999        1.12324        1.16214
H          0.10798        2.54380       -0.92088
H          2.07481        0.96830       -1.05561
