19
dsC7O2H10nsd_1967.xyz
O         -2.24637        0.60583        0.64457
C         -1.10814        0.16905       -0.05199
C         -1.19976       -1.16018       -0.76591
C         -0.41255       -1.03455        0.52328
C          1.10225       -0.94011        0.44803
C          1.56568        0.40283        1.05450
C          1.27811        0.89789       -0.38120
C         -0.19246        1.28031       -0.58493
O          1.48408       -0.46002       -0.87392
H         -2.88792        0.91466       -0.00496
H         -2.15499       -1.67015       -0.70656
H         -0.63831       -1.29288       -1.68297
H         -0.83278       -1.46820        1.42486
H          1.61846       -1.86767        0.70870
H          0.98453        0.82022        1.87934
H          2.63278        0.41702        1.28181
H          1.96932        1.60775       -0.84279
H         -0.41120        2.19738       -0.02681
H         -0.38030        1.48397       -1.64646
