19
dsC7O2H10nsd_3962.xyz
C         -2.35042       -1.19149        0.37431
C         -1.31695       -0.24410       -0.13841
C         -0.15624       -0.48141       -0.74399
C          1.02992       -1.41714       -0.63408
C          1.78900       -0.15676       -0.04043
O          1.68363       -0.04016        1.35405
C          0.68877        0.74583       -0.74039
O         -0.03612        1.75376       -0.08074
C         -1.36149        1.25098        0.16067
H         -3.32321       -1.02464       -0.10607
H         -2.06427       -2.23046        0.18984
H         -2.50757       -1.06171        1.45276
H          0.92893       -2.28201        0.02652
H          1.45795       -1.73365       -1.59039
H          2.82052       -0.01654       -0.39224
H          2.21592       -0.73625        1.75191
H          1.06540        1.10835       -1.70716
H         -2.08504        1.81189       -0.45274
H         -1.62431        1.42071        1.21497
