19
dsC7O2H10nsd_3914.xyz
C         -2.66252        0.68708       -0.00918
C         -1.79879       -0.55843       -0.02327
C         -0.73044       -0.67943        1.08804
C          0.27440       -0.43035       -0.06195
C          1.57333       -1.25970       -0.24631
C          2.43798       -0.02824        0.16023
C          1.16566        0.83310        0.03370
O          0.94189        2.00608       -0.03714
O         -0.75885       -0.48630       -1.04080
H         -3.39362        0.63714        0.80547
H         -2.04117        1.57820        0.12275
H         -3.20711        0.78301       -0.95345
H         -2.40882       -1.45711       -0.17228
H         -0.76792        0.08161        1.86967
H         -0.64682       -1.67019        1.53847
H          1.66289       -2.15343        0.37362
H          1.70554       -1.53392       -1.29553
H          2.81376       -0.06008        1.18778
H          3.26120        0.25232       -0.50049
