19
dsC7O2H10nsd_6071.xyz
C         -3.76207        0.54659       -0.07947
C         -2.27928        0.83173        0.17469
C         -1.41882       -0.39734       -0.06472
O         -0.04765       -0.03225        0.19826
C          0.86149       -0.99591        0.00918
O          0.60796       -2.11847       -0.34495
C          2.27528       -0.52114        0.35263
C          2.58283        0.85745        0.00347
C          2.86475        1.98710       -0.29021
H         -3.93628        0.22736       -1.11271
H         -4.13584       -0.24457        0.57956
H         -4.36648        1.44022        0.09850
H         -1.93022        1.64024       -0.47735
H         -2.12988        1.17394        1.20505
H         -1.69761       -1.22662        0.59446
H         -1.49725       -0.75801       -1.09571
H          2.39960       -0.66886        1.43444
H          2.96322       -1.21723       -0.13535
H          3.10313        2.98835       -0.55088
