19
dsC7O2H10nsd_0286.xyz
C          1.88106       -0.97021        0.27473
C          1.25817        0.05756       -0.66453
C          0.94540        1.49814       -0.30966
O         -0.48322        1.67481       -0.23115
C         -1.13932        0.63752        0.49748
C         -1.79279       -0.42729       -0.43864
C         -0.75118       -1.59347       -0.44144
C          0.40536       -0.85586        0.18926
O         -0.19019       -0.09972        1.23985
H          2.36924       -1.81726       -0.19434
H          2.34000       -0.63601        1.19947
H          1.31376       -0.17653       -1.72319
H          1.41470        1.78566        0.63813
H          1.27516        2.19711       -1.08119
H         -1.83997        1.11373        1.18796
H         -2.76049       -0.74677       -0.04450
H         -1.94841       -0.00111       -1.43115
H         -1.08999       -2.42932        0.17805
H         -0.52696       -1.96856       -1.44191
