19
dsC7O2H10nsd_1257.xyz
C          1.75344       -0.70591        1.37111
C          1.24705       -0.70699       -0.07330
O          2.16678       -0.08851       -0.95583
C         -0.14194       -0.07438       -0.19433
O         -0.94178       -0.54953       -1.29224
C         -1.35599       -0.89409        0.02946
C         -2.66581       -0.33607        0.51761
C         -0.16446        1.35407        0.02587
C         -0.09824        2.54015        0.21770
H          1.09550       -1.28672        2.02577
H          2.75535       -1.14087        1.40635
H          1.80608        0.31559        1.76309
H          1.15016       -1.73529       -0.43681
H          2.19900        0.84966       -0.73128
H         -1.17524       -1.94203        0.28138
H         -2.75468       -0.46792        1.60115
H         -2.74953        0.72713        0.28430
H         -3.49884       -0.86550        0.04408
H         -0.07212        3.58959        0.38181
