19
dsC7O2H10nsd_1811.xyz
O         -1.43453        1.84818       -0.05852
C         -1.17167        0.49307       -0.01285
C         -1.91833       -0.54048       -0.88520
C         -0.89465       -1.35245       -0.03644
C         -1.34189       -0.49820        1.18509
C          0.15823       -0.25559       -0.39869
C          1.41916       -0.08398        0.39608
C          2.52697        0.74053       -0.11275
O          2.59615       -0.68186       -0.16842
H         -0.88070        2.29201        0.59266
H         -2.97427       -0.69519       -0.65141
H         -1.73866       -0.49365       -1.96205
H         -0.73740       -2.42760       -0.05679
H         -2.36668       -0.65551        1.53085
H         -0.65483       -0.41274        2.02892
H          0.40230       -0.20686       -1.46528
H          1.35586       -0.20945        1.47627
H          2.42133        1.24203       -1.07446
H          3.21322        1.21897        0.58542
