19
dsC7O2H10nsd_3986.xyz
C          2.53379       -0.65520       -0.59913
C          1.02177       -0.62666       -0.50863
O          0.56179       -1.35875        0.67403
C          0.06927       -0.14927        1.24284
C         -1.07183        0.41583        0.41901
C         -2.01970       -0.44257       -0.32908
O         -3.15555       -0.11461       -0.58429
C          0.40298        0.67205        0.03596
C          0.93237        2.06376       -0.15121
H          2.88141       -0.07484       -1.46057
H          2.99041       -0.24842        0.30781
H          2.87418       -1.68732       -0.72228
H          0.57521       -1.03492       -1.42274
H          0.17733        0.00047        2.31144
H         -1.53733        1.30330        0.83969
H         -1.62881       -1.43473       -0.63128
H          0.69809        2.44622       -1.15107
H          0.48867        2.75095        0.57530
H          2.01902        2.09857       -0.02275
