19
dsC7O2H10nsd_4216.xyz
C         -2.47841       -0.66415       -0.14852
C         -1.12913       -0.04945        0.01203
O         -0.45924        0.40977       -1.18056
C          0.28744        1.38730       -0.36214
C          1.67281        0.81455       -0.10689
C          1.34612       -0.57905        0.50941
O          1.44792       -1.63370       -0.43307
C         -0.07981       -0.40233        1.05242
C         -0.56038        1.03150        0.87557
H         -3.15861        0.01808       -0.66793
H         -2.41356       -1.59192       -0.72771
H         -2.90465       -0.90630        0.82930
H          0.22011        2.38903       -0.78848
H          2.27630        0.70761       -1.01217
H          2.21425        1.45227        0.60168
H          2.04387       -0.83606        1.31055
H          0.86635       -1.38081       -1.16199
H         -0.41498       -0.97349        1.91069
H         -0.99037        1.68278        1.62383
