19
dsC7O2H10nsd_5956.xyz
C         -3.62967       -0.43286        0.14871
C         -2.24422       -0.19060       -0.45382
C         -1.19006        0.15080        0.61183
C          0.17065        0.35759        0.03321
C          0.77984        1.56551       -0.57667
C          1.48503        0.85451        0.59462
C          2.03389       -0.44114        0.06730
O          3.04409       -1.06340        0.11212
O          0.84016       -0.81607       -0.54049
H         -4.36007       -0.68023       -0.62720
H         -3.61061       -1.26196        0.86457
H         -3.99417        0.45404        0.67926
H         -1.91420       -1.07957       -1.00308
H         -2.29179        0.62485       -1.18587
H         -1.47908        1.06348        1.14773
H         -1.14036       -0.65381        1.35579
H          1.20446        1.51982       -1.57420
H          0.33861        2.51964       -0.30273
H          1.74047        1.34665        1.52157
