19
dsC7O2H10nsd_1305.xyz
C          1.71952        1.24076        0.59380
C          1.47477        0.13801       -0.43286
O          2.65341       -0.63188       -0.66605
C          0.32392       -0.80171       -0.06798
O         -0.30370       -0.68328        1.21102
C         -1.10480       -0.42367        0.03933
C         -2.18339       -1.45399       -0.23573
C         -1.51664        0.94697       -0.16605
C         -1.92523        2.05859       -0.37462
H          0.84389        1.88230        0.70652
H          1.94127        0.80863        1.57546
H          2.56927        1.84849        0.27223
H          1.24796        0.58560       -1.40802
H          2.98542       -0.92242        0.19096
H          0.52251       -1.83006       -0.37699
H         -3.04145       -1.28730        0.42196
H         -2.52905       -1.38200       -1.27116
H         -1.79472       -2.45923       -0.05719
H         -2.27161        3.04759       -0.54890
