19
dsC7O2H10nsd_4876.xyz
C          0.62539       -0.87782        1.54155
C          0.13753       -0.50004        0.13235
C          1.29622       -0.60075       -0.88818
O          2.41003        0.18038       -0.52908
C         -1.10118       -1.31942       -0.30087
C         -2.22576       -0.31861       -0.35892
C         -1.82855        0.93552       -0.10776
C         -0.37577        0.95388        0.14004
O          0.33109        1.93380        0.29263
H         -0.17924       -0.78290        2.27806
H          0.97923       -1.91427        1.55333
H          1.45231       -0.23154        1.84058
H          1.63870       -1.64151       -0.94360
H          0.91331       -0.33012       -1.88824
H          2.06872        1.06003       -0.30578
H         -0.96317       -1.79221       -1.28320
H         -1.32740       -2.13441        0.39670
H         -3.24242       -0.61417       -0.59726
H         -2.43619        1.83108       -0.10827
