19
dsC7O2H10nsd_1554.xyz
C          1.18531        1.69904        0.09892
C          0.94707        0.19438       -0.03526
C          2.25725       -0.53189       -0.32715
O          0.38719       -0.31479        1.23000
C         -0.91659       -0.77699        0.86004
C         -0.65990       -1.56620       -0.45456
C         -0.22836       -0.15488       -0.98798
C         -1.40618        0.33067       -0.10471
O         -2.33304        1.07300       -0.21416
H          0.26526        2.22698        0.36191
H          1.92478        1.89165        0.88161
H          1.56417        2.11661       -0.83981
H          2.11391       -1.60337       -0.48007
H          2.73567       -0.11598       -1.21974
H          2.94018       -0.40300        0.51826
H         -1.45964       -1.15438        1.72261
H          0.10706       -2.33819       -0.39615
H         -1.56772       -1.94380       -0.92912
H         -0.12849        0.09310       -2.04197
