19
dsC7O2H10nsd_4532.xyz
C          2.57774       -1.07967       -0.14427
C          1.57372        0.03809        0.06224
O          1.94410        1.19404        0.21069
C          0.13334       -0.27883        0.07882
C         -0.45438       -1.47165       -0.08349
C         -1.95391       -1.38657        0.02913
C         -2.22805        0.13643       -0.02704
C         -0.89490        0.81470        0.34866
O         -0.70924        1.98387       -0.42240
H          2.39466       -1.58997       -1.09563
H          3.58471       -0.66142       -0.14313
H          2.49134       -1.82945        0.64907
H          0.06445       -2.41017       -0.25130
H         -2.46699       -1.94955       -0.75850
H         -2.28345       -1.82970        0.97979
H         -2.45706        0.43974       -1.05284
H         -3.05924        0.44701        0.60886
H         -0.87061        1.06391        1.42415
H          0.20192        2.26139       -0.25119
