19
dsC7O2H10nsd_1706.xyz
O         -0.91808       -0.23314        1.52152
C         -0.49813        0.26394        0.29227
C         -0.09385        1.77621        0.21857
C          1.18588        1.39027       -0.57724
C          0.94929       -0.06474       -0.16226
C          1.47540       -1.35229       -0.72838
C          1.86461       -0.91555        0.66364
C         -1.49467       -0.10485       -0.77971
O         -2.47516       -0.77134       -0.54316
H         -1.75148       -0.70101        1.34740
H         -0.79966        2.46637       -0.25063
H          0.12927        2.12227        1.22924
H          1.08101        1.55499       -1.65435
H          2.12132        1.84856       -0.24772
H          0.78957       -2.18865       -0.82597
H          2.22118       -1.29409       -1.51492
H          1.42119       -1.43473        1.50606
H          2.87655       -0.55751        0.82504
H         -1.27415        0.26181       -1.80236
