19
dsC7O2H10nsd_3783.xyz
O         -3.12571       -0.94704       -0.25394
C         -2.16739       -0.22023        0.45917
C         -1.99226        1.25409        0.18874
C         -0.97483        0.24602       -0.31812
C          0.40311        0.18088        0.25795
C          1.33747       -0.87178       -0.31946
C          2.68851       -0.78179        0.37924
O          2.77019        0.64959        0.12738
C          1.55002        0.59617       -0.61479
H         -3.99316       -0.71492        0.09451
H         -1.99101       -0.56575        1.47870
H         -2.65195        1.70406       -0.54510
H         -1.71191        1.90179        1.01332
H         -1.03935        0.03213       -1.38209
H          0.48178        0.41689        1.31884
H          0.99028       -1.68080       -0.94793
H          2.72814       -1.01958        1.44931
H          3.49345       -1.30776       -0.14688
H          1.47017        1.19339       -1.51660
