19
dsC7O2H10nsd_5765.xyz
O          2.98576        0.40466       -0.33438
C          1.65386        0.79423       -0.03249
C          0.86430       -0.33722        0.61182
C          0.42093       -1.54168       -0.27911
C         -1.05165       -1.35763        0.17850
C         -1.91650       -0.47762       -0.76322
C         -1.42544        0.76448        0.00910
O         -1.62357        1.93983       -0.10380
C         -0.62771       -0.08491        1.01084
H          2.94628       -0.27780       -1.01206
H          1.73524        1.63828        0.66064
H          1.13367        1.16600       -0.92897
H          1.42458       -0.68917        1.48229
H          0.57102       -1.40325       -1.35627
H          0.86938       -2.49603        0.00396
H         -1.54380       -2.21502        0.63403
H         -1.70555       -0.50818       -1.83642
H         -2.99441       -0.61607       -0.62131
H         -0.84064        0.08743        2.06696
