19
dsC7O2H10nsd_0635.xyz
C          2.36364        0.41735        0.31490
C          1.97940       -0.80515       -0.52438
O          0.67799       -0.50009       -1.01537
C         -0.05357        0.15599        0.01125
C          1.01035        0.80786        0.93531
O         -0.81979       -0.77467        0.77470
C         -2.19167       -0.70508        0.40670
C         -2.30228        0.53441       -0.43593
C         -1.09141        1.03631       -0.63718
H          3.13250        0.19969        1.06046
H          2.73823        1.21245       -0.33716
H          2.62958       -0.98049       -1.38514
H          1.95570       -1.71781        0.08969
H          0.86875        1.88869        1.00294
H          0.88395        0.39050        1.93641
H         -2.49939       -1.60473       -0.14919
H         -2.79935       -0.65930        1.32077
H         -3.24221        0.91385       -0.81589
H         -0.82007        1.90513       -1.22154
