19
dsC7O2H10nsd_5681.xyz
C          0.46378        1.36821        1.17161
C          0.26730        0.56458       -0.09348
C          1.54719        0.31680       -0.89842
C          2.51611       -0.51343       -0.19282
C          3.30059       -1.20157        0.40350
O         -0.84293        0.93779       -0.92135
C         -0.85347       -0.36796       -0.30557
C         -1.99059       -0.62583        0.65117
O         -3.21143       -0.78309       -0.05399
H         -0.47841        1.55387        1.68737
H          1.14581        0.84738        1.84971
H          0.91031        2.33822        0.92616
H          1.27297       -0.14732       -1.85207
H          1.99852        1.28755       -1.14357
H          3.99973       -1.81030        0.92141
H         -0.69704       -1.18140       -1.01703
H         -1.81893       -1.56841        1.18233
H         -2.06260        0.17480        1.39879
H         -3.34096        0.02325       -0.56622
