19
dsC7O2H10nsd_2133.xyz
C          2.72999       -0.07688        0.06770
C          1.23127       -0.00075        0.06538
C          0.29486       -0.73598        1.03718
C         -0.59161       -0.60043       -0.20625
C         -2.11788       -0.74730       -0.10025
O         -2.12798        0.64271        0.38367
C         -0.86856        0.86340       -0.35244
C          0.51788        1.41634        0.04658
O          0.58984       -0.80180       -1.03914
H          3.06617       -1.11621        0.10635
H          3.14242        0.38679       -0.83396
H          3.13191        0.45397        0.93712
H          0.59179       -1.77471        1.19190
H         -0.00869       -0.25028        1.96659
H         -2.64922       -0.83863       -1.05543
H         -2.52179       -1.44223        0.64039
H         -1.12614        1.15145       -1.37765
H          0.91404        2.10092       -0.70656
H          0.58894        1.89125        1.02755
