19
dsC7O2H10nsd_2528.xyz
C          2.75659       -0.83467        0.10804
C          1.33310       -0.40283       -0.04298
C          0.21980       -1.05876        0.29980
C         -1.06109       -0.27226        0.03256
C         -2.02455       -0.98212       -0.91056
O         -1.77277       -0.01836        1.23993
C         -0.50775        1.03377       -0.56568
O          0.26395        1.77724        0.38544
C          0.95181        0.94462       -0.59095
H          3.30987       -0.14719        0.75997
H          2.82688       -1.83968        0.53162
H          3.27658       -0.83655       -0.85820
H          0.18319       -2.02230        0.79787
H         -2.34308       -1.93441       -0.47752
H         -2.91410       -0.36455       -1.07011
H         -1.54988       -1.18043       -1.87584
H         -1.20769        0.57426        1.75320
H         -1.10211        1.62337       -1.25889
H          1.58337        1.48992       -1.28641
