19
dsC7O2H10nsd_2303.xyz
C          1.52795       -1.47793       -0.62588
C          0.38475       -0.70738       -0.02661
O          0.43963       -0.61413        1.42854
C          0.41400        0.83801        1.39430
C          0.19569        0.82987       -0.12389
O          1.02196        1.69382       -0.83872
C         -1.23566        0.60074       -0.67310
C         -2.07717       -0.26318        0.22667
C         -1.03443       -0.92482       -0.62006
H          1.47924       -2.52896       -0.31993
H          1.48782       -1.44385       -1.71992
H          2.48656       -1.06703       -0.29857
H         -0.37524        1.25864        2.02673
H          1.38366        1.26595        1.67517
H          0.81274        1.61191       -1.77556
H         -1.68018        1.21496       -1.44944
H         -1.95754       -0.24220        1.30398
H         -3.10048       -0.40166       -0.10818
H         -1.28005       -1.67707       -1.36133
