19
dsC7O2H10nsd_2403.xyz
C          1.79517       -1.58906       -0.16284
C          0.80312       -0.45139       -0.10641
C          0.73662        0.55141       -1.30065
C          0.78986        1.75366       -0.30720
C          0.85194        0.76210        0.87528
O         -0.45088        0.45038        1.41075
C         -0.57641       -0.71277        0.58883
C         -1.78971       -0.74547       -0.30530
O         -2.54867        0.17038       -0.48468
H          1.87628       -2.10070        0.80225
H          1.50095       -2.33309       -0.91304
H          2.79157       -1.22610       -0.43710
H          1.62097        0.47902       -1.93867
H         -0.14810        0.49493       -1.93800
H          1.67771        2.38157       -0.41497
H         -0.09940        2.38545       -0.27985
H          1.59813        0.90410        1.66183
H         -0.56824       -1.63828        1.18820
H         -1.91696       -1.72377       -0.82942
