19
dsC7O2H10nsd_1568.xyz
C         -1.23594       -0.43250        1.47709
C         -1.04953       -0.19134       -0.02669
O         -2.18629       -0.68111       -0.73905
C         -0.84487        1.30901       -0.33560
C          0.53941        1.80280       -0.02022
C          1.60330        0.99751        0.08716
C          1.49958       -0.46475       -0.10981
O          2.45021       -1.20289        0.05352
C          0.14424       -0.98546       -0.57472
H         -1.37758       -1.49926        1.67030
H         -0.37493       -0.08510        2.05495
H         -2.11938        0.10396        1.84441
H         -2.97752       -0.32589       -0.31946
H         -1.05117        1.46222       -1.40414
H         -1.58750        1.91210        0.20287
H          0.66002        2.87509        0.11786
H          2.59236        1.37533        0.32540
H          0.12203       -0.91311       -1.67059
H          0.06511       -2.04499       -0.32059
