19
dsC7O2H10nsd_2100.xyz
O          2.30317       -0.46128       -0.09050
C          0.92471       -0.52019       -0.00706
C         -0.00047       -1.76655       -0.01554
C         -0.92498       -0.51974       -0.00698
O         -2.30341       -0.46006       -0.09028
C         -0.00001        0.18495       -1.03720
C          0.00038        1.68935       -0.76626
C          0.00048        1.68385        0.79141
C          0.00012        0.17819        1.04923
H          2.67534       -0.89036        0.68733
H         -0.00065       -2.37311       -0.92507
H         -0.00060       -2.38962        0.88562
H         -2.67575       -0.89111        0.68639
H         -0.00015       -0.17475       -2.06769
H          0.88456        2.17817       -1.18498
H         -0.88362        2.17859       -1.18487
H          0.88407        2.17294        1.21279
H         -0.88279        2.17340        1.21293
H          0.00008       -0.19258        2.07817
