19
dsC7O2H10nsd_0701.xyz
O         -2.80864       -0.89614        0.10960
C         -1.77392       -0.31689       -0.04247
C         -0.45690       -0.84150       -0.60735
C          0.57635        0.18306       -0.13013
C          1.37161       -0.26188        1.13900
C          2.57807       -0.60162        0.22362
C          1.92273        0.24804       -0.89916
C         -0.28966        1.44281       -0.03767
O         -1.61872        0.99813        0.28142
H         -0.28273       -1.86855       -0.28288
H         -0.54280       -0.84843       -1.70173
H          1.58311        0.58478        1.79876
H          0.94247       -1.06900        1.73812
H          3.56784       -0.29658        0.56836
H          2.61480       -1.66311       -0.03440
H          2.32188        1.26750       -0.92523
H          1.93169       -0.15212       -1.91657
H          0.03022        2.13426        0.74602
H         -0.31738        1.98324       -0.99356
