19
dsC7O2H10nsd_2134.xyz
O         -2.65301       -0.00953        0.11326
C         -1.26574        0.02774        0.03620
C         -0.59657       -0.97433       -1.00052
C          0.61800       -0.61535       -0.12354
C         -0.32778       -0.61507        1.10151
O          2.02095       -0.86295        0.01503
C          2.19461        0.57713        0.27312
C          0.84695        0.84903       -0.44897
C         -0.55548        1.42131       -0.13595
H         -2.93089        0.54490        0.85065
H         -1.02163       -1.97072       -0.86556
H         -0.56181       -0.69691       -2.05642
H         -0.64337       -1.62069        1.38490
H         -0.05931       -0.02397        1.98130
H          2.21187        0.78015        1.35022
H          3.10397        0.95977       -0.19644
H          1.07363        0.96071       -1.51246
H         -0.63865        2.00848        0.78501
H         -0.96130        2.01536       -0.95862
