19
dsC7O2H10nsd_0754.xyz
O          2.06749       -1.53708       -0.28543
C          1.23473       -0.68541       -0.07039
C          1.58301        0.66261        0.54596
C          0.73325        1.78261       -0.07401
O         -0.64497        1.50755        0.09928
C         -1.08646        0.40548       -0.67115
C         -2.25979       -0.27175        0.06399
C         -1.24364       -1.24908        0.71501
C         -0.22460       -0.87443       -0.41690
H          1.36496        0.62354        1.62097
H          2.65548        0.83807        0.42614
H          0.92589        2.73825        0.42102
H          0.97556        1.90343       -1.14253
H         -1.22297        0.70468       -1.71965
H         -2.83971        0.37979        0.71990
H         -2.93184       -0.78107       -0.63134
H         -0.91345       -0.90103        1.69593
H         -1.51443       -2.30332        0.78581
H         -0.29859       -1.58635       -1.24203
