19
dsC7O2H10nsd_3587.xyz
C         -1.85409       -1.23072       -0.53069
C         -0.68001       -0.34656       -0.10626
C          0.46977       -0.26181       -1.15460
C          1.78397       -0.19655       -0.35547
O          2.15988        1.18284       -0.23463
C          1.38966       -0.79650        0.97723
C          0.06616       -0.86059        1.11489
C         -1.16083        1.07136        0.23042
O         -2.31481        1.39927        0.33029
H         -2.62858       -1.24476        0.24011
H         -2.31521       -0.84958       -1.44671
H         -1.51731       -2.25597       -0.71058
H          0.45002       -1.17223       -1.76058
H          0.38657        0.59314       -1.83139
H          2.59481       -0.74962       -0.85041
H          2.85912        1.24672        0.42448
H          2.11592       -1.08598        1.72999
H         -0.46504       -1.20036        1.99804
H         -0.32854        1.79003        0.38860
