19
dsC7O2H10nsd_4230.xyz
C          1.62247       -1.40439        0.67401
C          0.87245       -0.71947       -0.47277
C         -0.48318       -1.39023       -0.85267
C         -1.52979       -0.39460       -0.35700
O         -1.35407       -0.25188        1.09792
C         -0.62191        0.94856        0.86653
C         -0.95388        1.01774       -0.59647
C          0.47485        0.72718       -0.15064
O          1.43746        1.73050       -0.17333
H          2.49966       -0.81683        0.96342
H          0.97031       -1.50468        1.54577
H          1.96563       -2.40305        0.38397
H          1.52945       -0.68890       -1.35251
H         -0.57726       -1.52239       -1.93666
H         -0.61276       -2.36868       -0.38113
H         -2.56971       -0.60586       -0.61201
H         -0.57939        1.70040        1.64584
H         -1.30293        1.81856       -1.23349
H          1.72390        1.85373       -1.08589
