19
dsC7O2H10nsd_1480.xyz
C         -1.28343       -1.82376       -0.39552
C         -1.00191       -0.39283        0.03361
C         -1.95753        0.14889        1.07942
C         -0.46763        0.48052       -1.04594
O         -0.32652        1.83670       -0.67044
C          0.64434        1.48405        0.35912
C          0.49314       -0.00601        0.07462
C          1.63597       -0.92123        0.03894
O          2.75550       -0.59640        0.37129
H         -2.32361       -1.91049       -0.72612
H         -0.64581       -2.14554       -1.22446
H         -1.13596       -2.52560        0.43200
H         -1.80606       -0.34421        2.04527
H         -1.84277        1.22570        1.21174
H         -2.99124       -0.03630        0.76750
H         -0.48494        0.24387       -2.10558
H          1.63867        1.85079        0.09260
H          0.35702        1.85423        1.34794
H          1.42515       -1.95264       -0.31319
