19
dsC7O2H10nsd_5766.xyz
C          3.01478        0.37115        0.08329
C          1.54643        0.74371       -0.14326
C          0.58476       -0.28056        0.45678
C          0.49459       -1.64595       -0.32227
C         -0.99165       -1.37295       -0.57755
O         -1.63268       -1.19956        0.66989
C         -0.90931       -0.06696        0.14674
C         -1.70889        1.14530       -0.10380
O         -1.26894        2.27003       -0.11413
H          3.68071        1.11901       -0.35717
H          3.24535        0.30762        1.15241
H          3.26078       -0.59748       -0.36560
H          1.33343        1.72490        0.29098
H          1.34888        0.84258       -1.21880
H          0.76411       -0.39184        1.53056
H          1.08900       -1.63211       -1.23930
H          0.70010       -2.56236        0.23522
H         -1.61148       -1.66062       -1.42036
H         -2.78213        0.92413       -0.29353
