19
dsC7O2H10nsd_1728.xyz
C         -1.68390       -1.58096       -0.00006
C         -0.67133       -0.42011       -0.00001
C          0.25576       -0.52073       -1.23842
O          1.31729        0.41159       -1.16834
C          2.07370        0.23647       -0.00001
O          1.31732        0.41146        1.16837
C          0.25579       -0.52087        1.23837
C         -1.37733        0.86139        0.00008
C         -1.99211        1.89398        0.00011
H         -1.16685       -2.54636       -0.00013
H         -2.32647       -1.53283        0.88350
H         -2.32648       -1.53273       -0.88362
H          0.65392       -1.54883       -1.29355
H         -0.29450       -0.30921       -2.15793
H          2.53122       -0.77308       -0.00007
H          2.84761        1.00562        0.00003
H          0.65395       -1.54898        1.29337
H         -0.29444       -0.30945        2.15792
H         -2.51830        2.81634       -0.00012
