19
dsC7O2H10nsd_1906.xyz
C         -2.19080        0.66489       -0.59112
C         -1.00684       -0.04447        0.00105
C         -1.11721       -1.24930        0.86296
C         -0.35700       -1.39534       -0.45489
C          0.98877       -0.78242       -0.28554
O          2.11108       -1.10059       -0.57386
C          0.39151        0.57531        0.21358
C          0.75736        1.71344       -0.73399
O          0.62790        0.92867        1.56591
H         -1.93589        1.18724       -1.51843
H         -2.99588       -0.04249       -0.81321
H         -2.58864        1.40602        0.11156
H         -0.58637       -1.30163        1.80651
H         -2.08407       -1.74338        0.85887
H         -0.66753       -2.10373       -1.21345
H          1.83301        1.90951       -0.67551
H          0.52570        1.46765       -1.77473
H          0.21825        2.62379       -0.45581
H          1.57480        1.07972        1.66548
