19
dsC7O2H10nsd_0736.xyz
O         -0.59981        2.07932        0.03823
C         -0.88199        0.91427       -0.04529
C         -2.28197        0.30628        0.08414
O         -2.14030       -1.07101       -0.20108
C         -0.80757       -1.44954        0.14679
C          0.07975       -0.26594       -0.26596
C          1.40013       -0.12794        0.44770
C          2.63460       -0.82686       -0.07399
C          2.51787        0.67322       -0.16507
H         -2.65064        0.48471        1.10888
H         -2.99096        0.75808       -0.61580
H         -0.72347       -1.63173        1.23129
H         -0.58145       -2.37996       -0.37719
H          0.24859       -0.31854       -1.35153
H          1.31015       -0.06475        1.52932
H          3.32593       -1.25011        0.64598
H          2.54356       -1.40120       -0.99037
H          3.12801        1.28116        0.49261
H          2.34630        1.11494       -1.14025
