19
dsC7O2H10nsd_5922.xyz
C          3.26575       -0.89074        0.01426
O          1.88681       -0.86444       -0.27340
C          1.28769        0.37824        0.02491
C         -0.19934        0.27769       -0.29798
C         -0.89800       -0.82711        0.54255
C         -2.26986       -1.09512        0.13132
C         -3.39690       -1.30818       -0.22874
C         -0.89642        1.61301       -0.12973
O         -0.33363        2.64327        0.14734
H          3.46259       -0.70583        1.08182
H          3.63520       -1.88497       -0.24756
H          3.81767       -0.13917       -0.57104
H          1.42992        0.63688        1.08747
H          1.74253        1.18879       -0.56286
H         -0.31275       -0.00578       -1.35452
H         -0.29387       -1.73475        0.44801
H         -0.87373       -0.54557        1.60368
H         -4.39407       -1.50628       -0.53548
H         -1.99636        1.57930       -0.28054
