19
dsC7O2H10nsd_0971.xyz
O          2.40121        1.10561        0.68747
C          2.62715        0.42176       -0.27474
O          1.98569       -0.69417       -0.63741
C          0.89793       -1.14141        0.21640
C         -0.43433       -0.66428       -0.29225
C         -0.89731        0.70373        0.14098
C         -2.21011        1.05962       -0.56740
C         -2.86543       -0.22903        0.03560
C         -1.53734       -0.55504        0.72944
H          3.42393        0.61965       -1.00873
H          0.96703       -2.23177        0.19022
H          1.08190       -0.78775        1.23358
H         -0.68183       -1.01421       -1.29459
H         -0.20595        1.39671        0.60264
H         -2.66971        1.97221       -0.18233
H         -2.16254        1.12857       -1.65929
H         -3.66596        0.00834        0.73936
H         -3.23490       -0.97860       -0.67207
H         -1.43048       -0.97685        1.72247
