19
dsC7O2H10nsd_1919.xyz
C          2.56446       -0.90655        0.02517
C          1.31030       -0.10121        0.10353
C          0.18243       -0.18405        1.14471
C         -0.82472        0.34002        0.06266
C         -1.52937        1.67018        0.31214
C         -1.79584       -0.72311       -0.40526
O         -1.77866       -1.88414       -0.08308
C          0.38777        0.40233       -0.92478
O          1.35278        1.27414       -0.34057
H          2.33823       -1.97536        0.08971
H          3.08714       -0.71162       -0.91494
H          3.23947       -0.65402        0.85057
H         -0.05875       -1.20659        1.44095
H          0.31398        0.45215        2.02287
H         -2.17838        1.61532        1.19253
H         -0.78439        2.45118        0.47994
H         -2.14804        1.96176       -0.54457
H         -2.55474       -0.34711       -1.13081
H          0.38233        0.30868       -2.00608
