19
dsC7O2H10nsd_3625.xyz
O          1.98792       -1.29369        0.69652
C          1.16672       -0.87163       -0.36022
C         -0.24318       -1.49720       -0.53322
C         -0.82328       -0.08970       -0.82933
C         -2.07286        0.31413       -0.09316
O         -2.55850       -0.30233        0.82246
C          0.50305        0.51584       -0.28551
C          1.11664        1.86134       -0.50400
C          0.66469        1.45286        0.87962
H          1.45831       -1.28470        1.50182
H          1.77677       -0.97610       -1.26335
H         -0.36616       -2.26424       -1.29950
H         -0.64179       -1.86805        0.41577
H         -0.94510        0.12633       -1.89646
H         -2.52753        1.27360       -0.43188
H          2.18347        1.90193       -0.70197
H          0.53600        2.61405       -1.02836
H          1.43230        1.20048        1.60436
H         -0.21231        1.93091        1.30260
