19
dsC7O2H10nsd_0928.xyz
O         -3.58617       -0.10044       -0.21078
C         -2.46156       -0.42042        0.07932
C         -1.33878        0.54761        0.37125
C         -0.08928        0.30571       -0.49106
C          1.04142        1.36569       -0.24839
C          2.13305        0.39132        0.23579
C          2.08590       -0.75630       -0.79595
C          0.73933       -0.93718       -0.06581
O          1.38444       -0.46744        1.15872
H         -2.18241       -1.49823        0.14794
H         -1.72387        1.56233        0.23400
H         -1.04457        0.43095        1.42379
H         -0.36893        0.25021       -1.54818
H          1.32302        1.91383       -1.15108
H          0.77386        2.08516        0.52882
H          3.05660        0.79294        0.65148
H          2.09087       -0.51855       -1.86297
H          2.78918       -1.55384       -0.55618
H          0.23971       -1.90039        0.03800
