19
dsC7O2H10nsd_1759.xyz
C         -1.63022       -1.59590        0.59561
C         -0.68416       -0.58455       -0.01638
C          0.48963       -1.15178       -0.88959
C          1.47293       -0.36871       -0.00861
O          2.66083       -0.21759       -0.01735
C          0.35053        0.17010        0.89832
C          0.01330        1.65704        0.71674
C         -0.73846        1.65431       -0.62455
O         -1.44921        0.42179       -0.66832
H         -2.24753       -2.05856       -0.18081
H         -1.07622       -2.38708        1.10972
H         -2.29633       -1.11001        1.31449
H          0.62630       -2.23613       -0.82733
H          0.47149       -0.86304       -1.94453
H          0.43039       -0.14027        1.94268
H         -0.64426        1.99023        1.52510
H          0.89953        2.29633        0.70677
H         -1.46680        2.46294       -0.72428
H         -0.03088        1.72885       -1.46570
