19
dsC7O2H10nsd_2972.xyz
C          1.87236       -1.64433       -0.37400
C          1.21953       -0.26772       -0.42014
C          1.48023        0.61681        0.84333
C         -0.02270        0.68732        1.12995
C         -0.77376        1.21874       -0.01615
O         -0.20597        2.22433       -0.79449
C         -0.29321       -0.22920       -0.12179
C         -1.27839       -1.31177       -0.20971
O         -2.41590       -1.23675        0.20692
H          1.57498       -2.26592       -1.22526
H          2.96285       -1.54668       -0.40179
H          1.60757       -2.18355        0.54288
H          1.47949        0.23466       -1.35734
H          2.02126        0.06570        1.61570
H          1.97054        1.57797        0.67480
H         -0.48911        0.57332        2.10150
H         -1.85173        1.27691        0.12699
H         -0.60930        2.19191       -1.66850
H         -0.91588       -2.24406       -0.69733
