19
dsC7O2H10nsd_4673.xyz
C          3.23199       -0.51339        0.05142
O          1.82132       -0.74939        0.04136
C          1.05433        0.36386       -0.01611
O          1.51334        1.48309       -0.05489
C         -0.38782        0.06168       -0.02504
C         -0.95576       -1.14984       -0.03465
C         -2.45806       -1.06824       -0.09623
C         -2.74623        0.42724        0.20400
C         -1.41616        1.17089       -0.08050
H          3.51885        0.08769        0.91845
H          3.69791       -1.49796        0.09952
H          3.54401        0.01303       -0.85458
H         -0.40732       -2.08396       -0.03548
H         -2.80854       -1.36493       -1.09567
H         -2.94880       -1.74840        0.60898
H         -3.58333        0.82000       -0.37761
H         -3.00771        0.53887        1.26086
H         -1.40914        1.64407       -1.07108
H         -1.20705        1.96880        0.63742
