19
dsC7O2H10nsd_0089.xyz
C         -4.24181       -0.11249       -0.39246
C         -3.13492        0.14750       -0.00278
C         -1.78232        0.44003        0.45390
C         -0.74492       -0.56949       -0.07381
C          0.64966       -0.26101        0.43850
O          1.57722       -1.17299       -0.09603
C          2.82455       -0.49821       -0.05266
C          2.43811        0.95995       -0.35652
O          1.06567        1.03415        0.02068
H         -5.22403       -0.33141       -0.73049
H         -1.49007        1.44702        0.13557
H         -1.76265        0.44816        1.55208
H         -1.01393       -1.58366        0.23712
H         -0.72072       -0.55027       -1.16707
H          0.68136       -0.29972        1.54552
H          3.28435       -0.58912        0.94312
H          3.48920       -0.94563       -0.79419
H          3.02988        1.68064        0.21901
H          2.53340        1.19700       -1.42296
