19
dsC7O2H10nsd_2301.xyz
C          1.66941       -1.32544       -0.60635
C          0.46254       -0.69901        0.05057
C          0.44496       -0.44066        1.58946
C          0.13154        1.07141        1.35039
C          0.08701        0.81952       -0.18154
O          0.75348        1.65990       -1.07291
C         -1.25937        0.35194       -0.78528
O         -1.94569       -0.42301        0.19953
C         -0.91609       -1.06333       -0.56793
H          1.74132       -2.39414       -0.37120
H          1.62384       -1.22401       -1.69639
H          2.59826       -0.85282       -0.26725
H         -0.32825       -0.98242        2.13485
H          1.41196       -0.62319        2.06562
H         -0.78634        1.45393        1.80079
H          0.95976        1.73352        1.62488
H          1.64429        1.81450       -0.74156
H         -1.84985        0.85201       -1.54560
H         -1.19742       -1.95911       -1.11302
