19
dsC7O2H10nsd_3678.xyz
O         -2.49053        0.24019       -0.17911
C         -1.50402       -0.70361       -0.46520
C         -0.94386       -1.54460        0.65726
C         -0.09500       -0.48213       -0.00019
C          1.20208       -0.65309       -0.77250
C          2.33940       -0.68729        0.20873
C          1.73446        0.64502       -0.14482
C          0.40386        0.86140        0.58301
O         -0.31988        2.00230        0.11718
H         -2.04123        1.08427       -0.02721
H         -1.64146       -1.19212       -1.42987
H         -1.33078       -1.33591        1.64966
H         -0.70285       -2.58515        0.46257
H          1.29779       -1.01299       -1.79025
H          2.18978       -1.11543        1.19683
H          3.32455       -0.86456       -0.21137
H          2.31592        1.44552       -0.58791
H          0.43269        0.96335        1.67179
H         -0.18253        2.05905       -0.83663
