19
dsC7O2H10nsd_0866.xyz
O          3.25680       -0.16522        0.51667
C          2.31486       -0.14225       -0.23218
C          0.86618       -0.03660        0.19000
C          0.25439        1.28410       -0.31936
O         -1.06404        1.44746        0.16702
C         -1.95847        0.43632       -0.20856
C         -2.24717       -0.63296        0.81136
C         -1.43956       -0.96259       -0.42574
C          0.05770       -1.22113       -0.38725
H          2.46264       -0.19567       -1.33820
H          0.83995       -0.02835        1.28367
H          0.81642        2.14411        0.05459
H          0.27776        1.30921       -1.42142
H         -2.76710        0.80548       -0.83530
H         -1.72299       -0.53522        1.75594
H         -3.25248       -1.03229        0.88768
H         -1.96408       -1.54389       -1.17840
H          0.28304       -2.13688        0.17058
H          0.39722       -1.39377       -1.41824
