19
dsC7O2H10nsd_5598.xyz
C          2.80360       -0.30723        0.13349
O          1.70494        0.34765       -0.45957
C          0.51176       -0.37682       -0.39397
C         -0.23257       -0.41306        0.98325
C         -1.52027       -1.13457        0.49198
O         -1.74385       -0.59489       -0.82036
C         -0.67015        0.36000       -1.04861
C         -0.87472        1.52236       -0.09268
C         -0.61023        1.05077        1.12999
H          2.96795       -1.30424       -0.30470
H          3.68551        0.30970       -0.05386
H          2.68098       -0.42438        1.22025
H          0.64667       -1.38324       -0.81870
H          0.26219       -0.89479        1.82585
H         -1.37620       -2.22009        0.41756
H         -2.38427       -0.93560        1.13617
H         -0.61935        0.56685       -2.11556
H         -1.26293        2.49443       -0.36532
H         -0.73365        1.56066        2.07705
