19
dsC7O2H10nsd_0179.xyz
C          1.99582        1.00022        0.06422
C          1.29204        0.02246       -0.90837
O          1.84242       -1.09691       -0.11021
C          1.32761       -0.12836        0.88498
C          0.03787        0.02166        0.01721
C         -0.90585        1.23406        0.15529
C         -2.27556        0.66378       -0.24530
C         -2.12622       -0.79502        0.18672
O         -0.77100       -1.12571       -0.08989
H          3.08258        0.93146        0.03615
H          1.63463        2.02641        0.16022
H          1.35721       -0.05383       -1.99455
H          1.43466       -0.38299        1.94042
H         -0.92258        1.57761        1.19566
H         -0.60092        2.07970       -0.46363
H         -3.11500        1.17390        0.23297
H         -2.41307        0.72012       -1.32988
H         -2.34198       -0.91148        1.26100
H         -2.76119       -1.49270       -0.36606
