19
dsC7O2H10nsd_0881.xyz
O         -3.03032        0.14983       -0.20255
C         -2.07621       -0.38179        0.30065
C         -0.70392       -0.43917       -0.35788
O          0.10205       -1.28954        0.43371
C          1.40687       -1.43210       -0.11385
C          2.22209       -0.14114        0.01839
C          1.39163        1.09564       -0.32605
C          0.44443        1.65667        0.70863
C         -0.10594        0.95213       -0.50337
H         -2.11777       -0.87045        1.29910
H         -0.83823       -0.87472       -1.36421
H          1.87900       -2.25657        0.42711
H          1.32487       -1.72451       -1.17327
H          2.61167       -0.05646        1.03913
H          3.09144       -0.20729       -0.64463
H          1.88018        1.82116       -0.96817
H          0.39764        1.13582        1.65980
H          0.31950        2.73142        0.77458
H         -0.59586        1.55780       -1.25783
