19
dsC7O2H10nsd_3081.xyz
O         -1.36662        1.78778        0.05210
C         -1.44618        0.46022       -0.36428
C         -1.28066       -0.74627        0.60882
C          0.06400       -0.47266        1.31609
C          0.86086       -0.09398        0.04686
C          2.29442       -0.43747       -0.19944
C          1.88801        1.01155       -0.03769
C         -0.24004       -0.28611       -0.99535
O         -0.87046       -1.52633       -0.55603
H         -0.47690        1.94657        0.38685
H         -2.34580        0.34416       -0.96911
H         -2.09961       -1.18582        1.17731
H         -0.00325        0.33148        2.05629
H          0.44756       -1.37094        1.80538
H          2.85196       -0.89835        0.60938
H          2.57984       -0.78038       -1.18890
H          2.17745        1.51937        0.87741
H          1.90124        1.64484       -0.91975
H          0.02174       -0.25424       -2.05350
