19
dsC7O2H10nsd_4881.xyz
C          2.94922       -0.40481       -0.11924
C          1.61707       -0.17361       -0.84103
C          0.40680       -0.11376        0.09343
O          0.21028       -1.30545        0.80807
C          0.26246        1.21140        0.88733
O         -0.77273        1.67318       -0.00485
C         -0.89012        0.37107       -0.63435
C         -2.12864       -0.31853       -0.31857
C         -3.16722       -0.87442       -0.08157
H          3.14262        0.36867        0.63211
H          2.98149       -1.37970        0.38139
H          3.78098       -0.39022       -0.82892
H          1.66324        0.76636       -1.40325
H          1.44513       -0.97437       -1.57073
H          1.04243       -1.55332        1.22374
H         -0.11190        1.05474        1.90635
H          1.12003        1.89367        0.90377
H         -0.78156        0.45904       -1.72301
H         -4.08036       -1.37070        0.13679
