19
dsC7O2H10nsd_3308.xyz
C         -1.70520        0.61506        1.36946
C         -0.89543        1.13293        0.19922
C         -0.72612        0.40495       -1.10580
C         -0.99371       -1.08979       -1.09922
O         -0.11893       -1.66210       -0.11155
C          0.80547       -0.75268        0.32399
O          1.72776       -1.06837        1.02014
C          0.47931        0.61228       -0.21077
C          1.64136        1.54107       -0.45819
H         -1.37349        1.08157        2.30252
H         -2.76559        0.85611        1.23636
H         -1.61995       -0.46712        1.49251
H         -0.95794        2.21247        0.07784
H         -0.83677        0.93883       -2.04244
H         -2.02101       -1.35323       -0.82791
H         -0.76240       -1.54354       -2.06904
H          2.33189        1.12873       -1.20113
H          1.29584        2.51478       -0.81686
H          2.20469        1.69228        0.46727
