19
dsC7O2H10nsd_1372.xyz
O         -1.45172        1.58421       -0.38628
C         -1.32964        0.31412        0.25124
C         -0.18546       -0.43414       -0.44954
C          1.14671        0.29752       -0.34299
C          2.39454       -0.45668       -0.85620
O          3.01259       -0.42349        0.44620
C          1.87896        0.25661        1.01994
C         -2.58664       -0.43780        0.20125
C         -3.63105       -1.03214        0.16564
H         -2.24037        2.01435       -0.04041
H         -1.05722        0.45143        1.31176
H         -0.10462       -1.43457       -0.00899
H         -0.46204       -0.56276       -1.50214
H          1.04789        1.30486       -0.74883
H          2.21152       -1.48493       -1.19773
H          2.99707        0.06394       -1.61061
H          1.39048       -0.34723        1.79828
H          2.15685        1.22658        1.44989
H         -4.55086       -1.56243        0.13338
