19
dsC7O2H10nsd_0680.xyz
O         -2.13572        1.11818       -0.80558
C         -1.54990        0.32677       -0.12738
C         -1.57427       -1.20748        0.01666
C         -0.14620       -1.08848        0.60844
O          0.77086       -1.31876       -0.44280
C          1.97806       -0.57470       -0.32992
C          1.70494        0.92062       -0.48033
C          0.78101        1.40800        0.64568
C         -0.37634        0.43686        0.86724
H         -2.31960       -1.52770        0.75163
H         -1.67151       -1.79987       -0.89441
H          0.09666       -1.70475        1.48313
H          2.47289       -0.78421        0.63388
H          2.62907       -0.94415       -1.12702
H          2.64734        1.47883       -0.46858
H          1.23640        1.08631       -1.45714
H          1.35918        1.49362        1.57422
H          0.38359        2.40467        0.42613
H         -0.81893        0.57236        1.86288
