19
dsC7O2H10nsd_1536.xyz
C         -1.70299        1.61139        0.07161
C         -1.36905        0.13862       -0.08531
C         -2.52833       -0.66163       -0.66385
O         -0.95624       -0.47425        1.19542
C          0.22836       -0.95890        0.58914
C          1.13474        0.19427        0.17425
C          2.48441       -0.18310       -0.29415
O          3.48124        0.47532       -0.12167
C         -0.02326       -0.27433       -0.71073
H         -2.55158        1.72988        0.75286
H         -0.86228        2.17876        0.47514
H         -1.98025        2.04284       -0.89556
H         -3.40786       -0.56528       -0.02058
H         -2.78884       -0.29414       -1.66228
H         -2.26903       -1.72080       -0.73946
H          0.58648       -1.94558        0.85859
H          1.07829        1.12898        0.72175
H          2.52884       -1.15948       -0.83431
H          0.12290       -0.60164       -1.73196
