19
dsC7O2H10nsd_4142.xyz
O         -2.18921       -1.07961        0.19619
C         -1.14952       -0.47118       -0.54850
C         -1.30928        1.10324       -0.48022
C          0.02564        1.53733        0.22425
C          0.08625        0.45793        1.32630
C          0.24124       -0.46849        0.06691
O          1.34758       -1.36987        0.05017
C          2.21268       -0.20719       -0.20659
C          0.99145        0.67019       -0.63135
H         -2.03510       -2.03004        0.19802
H         -1.13914       -0.83957       -1.58297
H         -1.42336        1.54470       -1.47351
H         -2.18764        1.35149        0.12027
H          0.14128        2.60359        0.42288
H          0.98755        0.48351        1.93715
H         -0.79818        0.31477        1.94775
H          2.76706        0.08754        0.68935
H          2.91196       -0.42298       -1.01785
H          0.91788        0.77189       -1.71678
