19
dsC7O2H10nsd_1718.xyz
C         -0.65367       -0.39142        1.55152
C         -0.49356       -0.09574        0.05763
C          0.09201        1.31614       -0.19778
C          1.58660        1.31482       -0.01686
C          2.29382        0.18865       -0.01532
C          1.64847       -1.15194       -0.20892
O          0.29520       -1.07298       -0.62105
C         -1.84482       -0.16286       -0.65264
O         -2.88184        0.22027       -0.17946
H         -1.48553        0.19663        1.94591
H         -0.87998       -1.45094        1.70113
H          0.25322       -0.14047        2.10714
H         -0.15716        1.64942       -1.21567
H         -0.38693        2.03136        0.48003
H          2.07502        2.27713        0.10979
H          3.36970        0.19444        0.13580
H          2.16348       -1.71494       -0.99678
H          1.74158       -1.75114        0.71394
H         -1.77341       -0.57560       -1.68286
