19
dsC7O2H10nsd_1090.xyz
C         -2.45429        0.84705       -0.35814
C         -1.39113       -0.13293        0.09313
O         -1.60153       -1.34233        0.10903
C         -0.06355        0.37713        0.43491
C          0.84539       -0.43981        1.36075
C          1.19003       -0.43920       -0.07309
O          1.15488       -1.54723       -0.87456
C          1.85676        0.85863       -0.51765
C          0.64661        1.68075        0.04923
H         -3.39593        0.31919       -0.51286
H         -2.58627        1.64672        0.37855
H         -2.15332        1.32512       -1.29765
H          1.43650        0.11016        2.09044
H          0.38675       -1.35283        1.72375
H          0.33847       -2.02542       -0.65102
H          2.84464        1.05919       -0.09191
H          1.91669        0.91927       -1.60556
H          0.87398        2.35396        0.88233
H          0.13291        2.25145       -0.72669
