19
dsC7O2H10nsd_4335.xyz
O         -2.54447       -0.67836       -0.36365
C         -1.51666       -0.05377        0.39865
C         -1.03640        1.23363       -0.31916
C          0.23438        1.84179        0.23236
C          1.43220        1.26887        0.10444
C          1.61162       -0.03674       -0.59248
O          2.06145       -1.15593        0.18740
C          0.71122       -1.16541       -0.29422
C         -0.36988       -1.02177        0.76120
H         -2.19212       -0.87257       -1.23893
H         -2.01438        0.22314        1.33433
H         -0.87720        0.97435       -1.37448
H         -1.85388        1.95902       -0.30574
H          0.15201        2.79362        0.75118
H          2.32564        1.74684        0.49867
H          2.08148        0.00705       -1.57797
H          0.53743       -1.89721       -1.08469
H         -0.81451       -1.99479        0.99296
H          0.12080       -0.66473        1.66988
