19
dsC7O2H10nsd_2116.xyz
C         -2.65858       -0.50515        0.06572
C         -1.19333       -0.17894        0.08866
C         -0.15378       -0.82240        1.01410
C          0.94857       -0.46763       -0.03768
O          1.85516       -1.45777       -0.42543
C          1.54161        0.91326        0.28108
O          0.40621        1.77971        0.31087
C         -0.62002        1.13112       -0.42037
C         -0.16864       -0.13449       -1.05978
H         -2.82431       -1.58371       -0.03830
H         -3.14929       -0.17952        0.99070
H         -3.16399       -0.00947       -0.77006
H         -0.04448       -0.41667        2.02677
H         -0.28751       -1.90726        1.05622
H          2.41077       -1.67334        0.33172
H          2.03824        0.95746        1.25766
H          2.25394        1.21671       -0.50102
H         -1.28664        1.82162       -0.92393
H         -0.21271       -0.41595       -2.10371
