19
dsC7O2H10nsd_0027.xyz
C          2.16543       -1.73627        0.37073
O          1.79840       -0.61927       -0.44349
C          0.59319       -0.08804       -0.19064
C          0.21592        1.20215        0.00691
C          1.11006        2.39915        0.07715
C         -1.22113        1.14579        0.12419
C         -1.59473       -0.15317        0.00281
C         -2.90000       -0.86016        0.05310
O         -0.47980       -0.93099       -0.20053
H          1.48536       -2.57892        0.21354
H          3.17438       -2.01763        0.06538
H          2.16349       -1.46058        1.43231
H          0.98444        2.94320        1.02059
H          2.15774        2.09820       -0.00305
H          0.90378        3.10913       -0.73262
H         -1.88558        1.98134        0.28798
H         -3.10965       -1.39554       -0.88052
H         -2.93289       -1.59672        0.86492
H         -3.70227       -0.13720        0.21806
