19
dsC7O2H10nsd_4792.xyz
C          3.22142       -0.26186       -0.53806
O          2.13217       -0.82422        0.17266
C          0.87928       -0.24206       -0.13822
C         -0.19309       -1.20484        0.39947
C         -1.54985       -0.73609        0.14952
C         -2.65795       -0.31891       -0.06743
C         -3.99989        0.18180       -0.32690
C          0.78587        1.11906        0.55272
O          0.61213        2.16839       -0.00682
H          3.35269        0.80773       -0.32380
H          4.11699       -0.79959       -0.21965
H          3.09493       -0.38343       -1.62359
H          0.75847       -0.09238       -1.22009
H         -0.01871       -2.18301       -0.06335
H         -0.02018       -1.33950        1.47540
H         -4.61758        0.15263        0.57739
H         -3.97210        1.21956       -0.67643
H         -4.50601       -0.41386       -1.09448
H          0.94239        1.05584        1.65523
