19
dsC7O2H10nsd_4756.xyz
O          3.73252       -0.59146        0.01622
C          2.37465       -0.86023       -0.23910
C          1.48700        0.20834        0.42786
O          1.96317        1.50805        0.03906
C          0.07494        0.01297        0.12595
C         -1.08027       -0.15662       -0.18010
C         -2.45678       -0.35372       -0.52447
C         -3.49518        0.69497       -0.14993
C         -3.48453       -0.62021        0.56661
H          3.83319        0.35959       -0.12462
H          2.15089       -0.87836       -1.31947
H          2.14267       -1.84929        0.16767
H          1.65975        0.16437        1.50972
H          1.56059        1.71302       -0.81279
H         -2.62593       -0.86891       -1.46551
H         -3.13974        1.56903        0.38217
H         -4.28122        0.88883       -0.87085
H         -3.12209       -0.64288        1.58711
H         -4.26262       -1.34116        0.34342
