19
dsC7O2H10nsd_5026.xyz
C         -0.88438        2.06095       -0.49438
C         -0.37751        1.03561        0.50652
C         -1.31903       -0.11204        1.02220
C         -0.00776       -0.86856        1.42392
C          0.34476       -0.28261        0.01151
C          1.63448       -0.40790       -0.75078
O          2.76040        0.05908       -0.01847
C         -1.08207       -0.74212       -0.35652
O         -1.66695       -1.29359       -1.23724
H         -0.05497        2.63132       -0.92736
H         -1.43323        1.59306       -1.31800
H         -1.55513        2.77773       -0.00912
H          0.16542        1.50619        1.33365
H         -2.23637       -0.01138        1.59810
H          0.54622       -0.41371        2.24761
H         -0.06027       -1.95453        1.51875
H          1.83426       -1.46319       -0.96464
H          1.54247        0.10424       -1.72143
H          2.65309        1.00636        0.11332
