19
dsC7O2H10nsd_3690.xyz
C         -2.37901       -1.19979       -0.22979
C         -1.64748       -0.06284        0.48306
O         -0.27315       -0.43128        0.72532
C          0.59022        0.50140        0.09447
C          1.94372        0.71590        0.73592
C          1.82264       -0.12674       -0.51915
O          1.92860       -1.51136       -0.44358
C         -0.27291        1.52323       -0.52471
C         -1.54930        1.21696       -0.30863
H         -2.32971       -2.11481        0.36750
H         -3.43370       -0.94368       -0.37578
H         -1.92785       -1.39192       -1.20764
H         -2.12315        0.10772        1.46163
H          2.39863        1.69935        0.67009
H          2.11831        0.18072        1.66331
H          2.21198        0.27574       -1.45095
H          1.09742       -1.81983       -0.05431
H          0.11638        2.37288       -1.06997
H         -2.41913        1.76616       -0.64474
