19
dsC7O2H10nsd_4937.xyz
C         -2.02150       -1.60913       -0.25799
C         -0.96274       -1.09463        0.71713
C         -0.14781        0.09562        0.17700
C          1.07367        0.43202        1.09429
O          2.15654       -0.22620        0.46274
C          1.87414       -0.09735       -0.90626
O          0.48666       -0.31218       -1.05318
C         -0.98803        1.27475       -0.04628
C         -1.67611        2.24819       -0.20066
H         -2.76402       -0.83567       -0.47576
H         -1.55949       -1.91190       -1.20089
H         -2.54394       -2.47313        0.16293
H         -1.42930       -0.78671        1.66040
H         -0.24248       -1.88732        0.95034
H          1.23651        1.51728        1.13694
H          0.96355        0.03690        2.10562
H          2.14824        0.90955       -1.26988
H          2.42049       -0.86482       -1.46104
H         -2.28486        3.10607       -0.34849
