19
dsC7O2H10nsd_1338.xyz
C          1.67896        1.77035       -0.25039
C          1.04450        0.46379        0.26159
C          2.06379       -0.65796        0.22588
O          1.87463       -1.75495       -0.23637
C         -0.22649        0.08782       -0.47977
C         -1.21945       -0.89941        0.19120
C         -2.35537       -0.35623       -0.70504
C         -1.54872        0.82906       -0.12719
O         -1.55649        0.15068        1.19123
H          1.00327        2.61489       -0.09167
H          2.61439        1.98944        0.27497
H          1.90109        1.71097       -1.32140
H          0.79004        0.60066        1.32289
H          3.04758       -0.39321        0.68082
H         -0.04704       -0.08432       -1.54527
H         -1.04011       -1.90815        0.55938
H         -2.30209       -0.54662       -1.77973
H         -3.35893       -0.46974       -0.29503
H         -1.77666        1.89581       -0.14152
