19
dsC7O2H10nsd_2904.xyz
C         -2.74912       -0.11615       -0.36841
C         -1.28639       -0.50380       -0.42777
C         -0.57450       -0.70992        0.90144
C          0.90470       -1.15927        0.70301
O          1.19400       -1.28275       -0.70572
C          1.21076        0.02099       -0.10118
C          2.40566        0.90044       -0.25027
C         -0.28381        0.51357        0.05917
O         -0.58416        1.82764        0.37163
H         -3.05783        0.38696       -1.29192
H         -3.38068       -1.00245       -0.24937
H         -2.95175        0.56373        0.46376
H         -1.00683       -1.14909       -1.25334
H         -1.10740       -0.77360        1.84093
H          1.51004       -1.74524        1.38506
H          2.46070        1.31957       -1.26187
H          2.34947        1.73390        0.45615
H          3.32274        0.33506       -0.06526
H         -0.78096        2.29686       -0.44740
