19
dsC7O2H10nsd_4601.xyz
C          2.88305        1.54409        0.04641
C          1.38707        1.29783       -0.15959
C          0.91119       -0.07444        0.39906
C          1.53516       -1.19855       -0.43352
O          2.43442       -1.90144       -0.05977
C         -0.54109       -0.19861        0.35471
C         -1.73586       -0.33460        0.26640
C         -3.19355       -0.43796        0.19214
O         -3.80913        0.66185       -0.46281
H          3.13870        1.54956        1.11116
H          3.49262        0.77250       -0.43323
H          3.17296        2.51153       -0.37350
H          0.80047        2.07839        0.33507
H          1.12942        1.34945       -1.22441
H          1.28021       -0.19173        1.42481
H          1.09022       -1.29915       -1.44891
H         -3.47691       -1.32432       -0.38618
H         -3.59836       -0.58054        1.20686
H         -3.50743        1.46443       -0.02464
