19
dsC7O2H10nsd_4719.xyz
C          2.39276       -1.48842        0.27122
O          1.18357       -1.14030       -0.37285
C          0.51995       -0.02779        0.20163
C          1.27553        1.22165        0.05879
C          1.89896        2.24010       -0.07770
C         -0.83827        0.05358       -0.50551
C         -1.83053       -1.08720       -0.20739
C         -2.71816        0.03483        0.36883
O         -1.70348        1.03085        0.10304
H          2.22588       -1.74474        1.32889
H          2.78727       -2.36413       -0.24874
H          3.12824       -0.67508        0.22036
H          0.33588       -0.20817        1.27496
H          2.44149        3.14606       -0.19229
H         -0.66948        0.26158       -1.56885
H         -2.22408       -1.60879       -1.07985
H         -1.47030       -1.82092        0.51551
H         -3.64077        0.23909       -0.18766
H         -2.95622       -0.02984        1.43699
