19
dsC7O2H10nsd_3243.xyz
O         -1.52029        1.51011       -0.33994
C         -0.24850        1.21334        0.17924
C          0.80153        0.69063       -0.83238
C          1.98844        0.44146        0.13728
C          1.08468       -0.70077        0.66136
C          0.56829       -0.86727       -0.79952
C         -0.85960       -1.37766       -0.67955
O         -1.28737       -0.91325        0.62330
C         -0.24331       -0.04915        1.10476
H         -2.08835        0.77055       -0.07916
H          0.13035        2.10681        0.68981
H          0.90823        1.24513       -1.76392
H          2.87770        0.05305       -0.36380
H          2.27080        1.24874        0.81968
H          1.45271       -1.53674        1.25548
H          1.21620       -1.42701       -1.47400
H         -1.52840       -0.98382       -1.45330
H         -0.91042       -2.47270       -0.69215
H         -0.41666        0.11756        2.16739
