19
dsC7O2H10nsd_2974.xyz
C         -1.32370        1.90960       -0.17105
C          0.03163        1.23078       -0.31935
C          0.66015        0.53470        0.92866
O         -0.30723       -0.47217        1.26471
C         -0.55954       -1.13491       -0.01361
C         -2.04388       -1.34933       -0.25861
C          0.23559       -0.20164       -0.95565
C          1.54330       -0.17615       -0.12334
O          2.69233       -0.44527       -0.29160
H         -1.18468        2.93389        0.18984
H         -1.85387        1.96702       -1.12690
H         -1.95402        1.38560        0.54846
H          0.75514        1.91516       -0.77529
H          1.01217        1.04891        1.81957
H         -0.07573       -2.12251        0.01646
H         -2.58719       -0.42130       -0.43790
H         -2.18210       -2.00236       -1.12666
H         -2.48533       -1.84689        0.61071
H          0.21353       -0.39633       -2.02548
