19
dsC7O2H10nsd_3151.xyz
C          2.10191       -1.69914       -0.21787
C          1.33239       -0.53152        0.38535
C          1.68824        0.86379       -0.16197
C          0.79792        1.89493        0.45911
C          0.25129        1.06137       -0.66942
C         -0.10002       -0.33660       -0.18882
O         -1.13813       -0.46252        0.80824
C         -2.39225       -0.33551        0.35925
O         -2.71975       -0.13049       -0.77817
H          3.14597       -1.69247        0.11212
H          1.66085       -2.65619        0.08007
H          2.09876       -1.65161       -1.31257
H          1.34881       -0.58915        1.47937
H          2.61503        1.11241       -0.66426
H          0.42709        1.76130        1.47216
H          1.00964        2.92550        0.19390
H         -0.10627        1.50224       -1.59027
H         -0.32585       -1.01943       -1.01033
H         -3.08792       -0.45250        1.20548
