19
dsC7O2H10nsd_5018.xyz
O          2.41142       -1.22864       -0.32008
C          1.67851       -0.64127        0.74482
C          0.58057        0.26804        0.25818
C         -0.47800        1.04429        1.09821
C         -0.79653        1.38120       -0.39035
C          0.73473        1.56812       -0.59509
C         -0.58746       -0.11749       -0.74407
C         -1.58651       -1.16675       -0.35512
O         -2.60684       -0.97738        0.26292
H          2.83333       -0.51601       -0.81103
H          1.25431       -1.47629        1.31334
H          2.33542       -0.08293        1.43196
H         -1.21932        0.46102        1.64142
H         -0.08710        1.86842        1.70128
H         -1.59343        2.02308       -0.76351
H          1.11484        1.45351       -1.61496
H          1.18986        2.42324       -0.08741
H         -0.22026       -0.33006       -1.75507
H         -1.31614       -2.19262       -0.69816
