19
dsC7O2H10nsd_4392.xyz
C         -1.84166        0.17876        1.42070
C         -1.59799        0.05858       -0.09681
C         -1.24951       -1.36876       -0.55717
C          0.28366       -1.49041       -0.38893
C          0.82823       -0.09241       -0.69704
C          2.02513        0.35503        0.12156
O          2.57457       -0.32788        0.94670
C         -0.36020        0.87915       -0.47121
O         -0.29405        2.07696       -0.56279
H         -1.00121       -0.22069        1.99813
H         -1.98075        1.22520        1.70492
H         -2.73796       -0.38118        1.70345
H         -2.46189        0.47513       -0.62296
H         -1.79004       -2.13449        0.00571
H         -1.51938       -1.49253       -1.61214
H          0.55172       -1.75338        0.63858
H          0.71220       -2.26056       -1.03363
H          1.10790        0.03484       -1.75295
H          2.34931        1.39547       -0.08699
