19
dsC7O2H10nsd_3327.xyz
C          2.17254       -0.65204        0.04616
C          0.69293       -0.38120        0.12447
O         -0.05003       -1.54904       -0.33991
C         -1.38458       -1.10474       -0.62188
C         -1.35777        0.41163       -0.28395
C         -1.13914        0.49032        1.21817
C          0.08628        0.00901        1.46920
C          0.08402        0.71936       -0.78595
O          0.55418        2.02632       -0.60078
H          2.72700        0.26522        0.26553
H          2.47262       -1.42314        0.76204
H          2.44375       -0.99188       -0.95709
H         -1.61055       -1.27477       -1.68214
H         -2.10486       -1.66346       -0.01264
H         -2.17424        0.99555       -0.70665
H         -1.89542        0.77465        1.93963
H          0.53986       -0.18359        2.43381
H          0.23033        0.48394       -1.84369
H          0.41257        2.24522        0.32945
