19
dsC7O2H10nsd_3176.xyz
C         -0.32501        2.14877        0.14109
C          0.02864        0.80471       -0.49229
C          1.50515        0.44845       -0.60345
C          2.23208        0.03110        0.66629
C          1.60682       -1.00037       -0.23453
O          0.33702       -1.50387        0.10907
C         -0.53829       -0.40580        0.31851
C         -1.92911       -0.78236       -0.14881
O         -2.92132       -0.16851        0.14794
H          0.02467        2.97919       -0.47954
H         -1.40892        2.24162        0.25941
H          0.13464        2.24935        1.12997
H         -0.38923        0.77188       -1.50786
H          2.07346        0.87176       -1.42349
H          3.31404        0.10545        0.65884
H          1.77981        0.22840        1.63234
H          2.20471       -1.73390       -0.76123
H         -0.59196       -0.13901        1.38357
H         -1.94836       -1.66268       -0.82913
