19
dsC7O2H10nsd_4786.xyz
C         -2.67187       -0.63191       -0.29948
O         -1.44387       -0.80514        0.38972
C         -0.37436       -0.02469       -0.12312
C         -0.56072        1.39608        0.41208
O         -0.97202        2.31743       -0.24299
C          0.93577       -0.66278        0.37706
C          1.11695       -2.08888       -0.17449
C          2.06557        0.20301        0.04548
C          2.98236        0.92234       -0.24976
H         -2.58139       -0.93492       -1.35231
H         -3.40266       -1.27327        0.19767
H         -3.02258        0.40750       -0.26630
H         -0.39484        0.00919       -1.22172
H         -0.36391        1.49425        1.50396
H          0.85086       -0.72408        1.47130
H          1.23260       -2.06897       -1.26222
H          2.00906       -2.55285        0.25297
H          0.24416       -2.69406        0.07773
H          3.79365        1.55985       -0.50152
