19
dsC7O2H10nsd_0692.xyz
O          1.91649        1.77279       -0.00919
C          1.68970        0.60371        0.05577
C          2.43451       -0.69502       -0.27743
O          1.26528       -1.44747        0.10152
C          0.49572       -0.27111        0.47388
C         -0.79465       -0.10408       -0.29808
C         -1.69677        1.11423        0.05246
C         -2.93506        0.19123       -0.11142
C         -1.99491       -1.03629        0.03613
H          2.71220       -0.82831       -1.33072
H          3.30653       -0.90414        0.35602
H          0.30374       -0.25129        1.55758
H         -0.57890       -0.13019       -1.37146
H         -1.55923        1.42555        1.09295
H         -1.61807        1.99774       -0.58364
H         -3.74480        0.29868        0.61358
H         -3.36012        0.25847       -1.11678
H         -1.94656       -1.38878        1.07146
H         -2.16018       -1.89631       -0.61554
