19
dsC7O2H10nsd_1844.xyz
C         -2.97565       -0.55058       -0.00005
C         -1.53729       -0.11314       -0.00006
C         -0.45124       -0.43352       -1.08075
C          0.23355        0.43772        0.00004
C         -0.99631        1.35803       -0.00267
C         -0.45265       -0.42911        1.08342
O          1.55247        0.94532        0.00018
C          2.55742        0.05360       -0.00018
O          2.45318       -1.14126        0.00011
H         -3.50000       -0.17840       -0.88665
H         -3.05292       -1.64291        0.00253
H         -3.50126       -0.17414        0.88402
H         -0.11763       -1.46903       -1.15463
H         -0.59276        0.02900       -2.06144
H         -1.17250        1.94527        0.90241
H         -1.17125        1.94165       -0.91034
H         -0.11918       -1.46435        1.16190
H         -0.59548        0.03735        2.06204
H          3.51072        0.60495       -0.00072
