19
dsC7O2H10nsd_1374.xyz
C          0.53180        1.89802       -0.67681
C         -0.17954        0.55481       -0.47835
C         -1.57799        0.75391        0.11962
C         -2.50786       -0.42868       -0.00488
O         -2.22233       -1.48771       -0.50679
C          0.64223       -0.41051        0.42110
O          0.79685        0.10270        1.74655
C          1.93566       -0.74686       -0.17717
C          3.01030       -0.99201       -0.65790
H          0.62724        2.43937        0.27139
H          1.53303        1.75445       -1.09250
H         -0.03049        2.53812       -1.36330
H         -0.28567        0.05496       -1.44766
H         -1.50468        1.01091        1.18593
H         -2.08980        1.60801       -0.34737
H         -3.52732       -0.25472        0.40984
H          0.06148       -1.33094        0.53483
H          1.53699        0.71865        1.73710
H          3.95538       -1.23074       -1.08001
