19
dsC7O2H10nsd_0011.xyz
C          2.95345       -0.56110       -0.53880
C          1.68082       -0.21842        0.21899
C          1.82648        0.99626        1.12973
O          0.67480        0.03772       -0.79947
C         -0.59867        0.07592       -0.40205
C         -1.59496        0.96536       -0.65725
C         -2.77510        0.41005       -0.05446
C         -2.40181       -0.75661        0.52497
O         -1.06676       -0.98383        0.31522
H          2.79266       -1.42408       -1.18983
H          3.26982        0.28443       -1.15748
H          3.75889       -0.79740        0.16253
H          1.35271       -1.08487        0.80376
H          0.87457        1.24364        1.60816
H          2.55996        0.79364        1.91633
H          2.16189        1.86682        0.55728
H         -1.49482        1.88840       -1.20343
H         -3.76596        0.83682       -0.05131
H         -2.91521       -1.50730        1.10122
