19
dsC7O2H10nsd_1114.xyz
C          2.76534       -0.15931        1.03510
C          1.71333        0.13296       -0.01742
O          1.77421        1.08456       -0.76108
C          0.55404       -0.82818       -0.06075
O         -0.14896       -0.93428       -1.30523
C         -0.82537       -0.31437       -0.24567
C         -2.11140       -0.81991        0.41512
C         -2.43307        0.66504        0.76663
C         -1.32269        1.13088       -0.22504
H          3.49576        0.64957        1.06347
H          2.30330       -0.28116        2.02181
H          3.27244       -1.10386        0.80460
H          0.68399       -1.77187        0.47012
H         -2.79693       -1.23172       -0.33150
H         -2.01511       -1.53338        1.23680
H         -3.44844        1.00351        0.55618
H         -2.19163        0.90715        1.80410
H         -1.72294        1.41471       -1.20240
H         -0.62342        1.90219        0.09956
