19
dsC7O2H10nsd_0088.xyz
C         -4.21330        0.07727       -0.49405
C         -3.12875       -0.14539       -0.02591
C         -1.80084       -0.38890        0.52255
C         -0.73395        0.56683       -0.04706
C          0.65036        0.29794        0.53126
C          1.76920        1.18474       -0.05358
O          2.88085        0.30756       -0.13926
C          2.31867       -0.93475       -0.46877
O          1.08931       -1.03313        0.22495
H         -5.17685        0.26148       -0.89983
H         -1.83228       -0.29178        1.61601
H         -1.49242       -1.41991        0.31582
H         -0.69842        0.46313       -1.13720
H         -1.01768        1.60413        0.16889
H          0.62006        0.39253        1.62608
H          1.48747        1.56268       -1.04943
H          2.04061        2.02786        0.58434
H          2.14538       -1.01223       -1.55785
H          2.99448       -1.72984       -0.13906
