19
dsC7O2H10nsd_0195.xyz
C         -2.10397       -0.52418        0.01598
C         -1.06412        0.18967       -0.86166
C         -0.34403        1.54032       -0.73915
C          0.72254        1.21002        0.34807
C         -0.13605        0.44840        1.35767
C         -0.65922       -0.59328        0.36773
O          0.28668       -1.61609        0.20245
C          1.37078       -1.00851       -0.50772
O          1.74897        0.28629       -0.06812
H         -2.75301        0.01244        0.70271
H         -2.57982       -1.36409       -0.48040
H         -0.94814       -0.31477       -1.81439
H          0.10486        1.82867       -1.69318
H         -0.96574        2.37741       -0.39948
H          1.26948        2.08176        0.71683
H          0.44206       -0.01236        2.15920
H         -0.92580        1.07496        1.78235
H          2.24378       -1.64821       -0.35786
H          1.11154       -0.97207       -1.57600
