19
dsC7O2H10nsd_4883.xyz
O         -2.13690       -1.18156       -0.80261
C         -1.88875        0.09700       -0.26280
C         -0.49801        0.16695        0.36755
O         -0.38694       -0.85812        1.33883
C         -0.05380        1.59960        0.75234
C          0.74823        1.67548       -0.57392
C          0.63594        0.11593       -0.71632
C          1.83683       -0.59963       -0.33639
C          2.85298       -1.17017       -0.04058
H         -1.79683       -1.80761       -0.14962
H         -1.98943        0.82257       -1.07739
H         -2.63376        0.36733        0.50899
H         -0.94394       -0.61838        2.08899
H         -0.84284        2.33898        0.91727
H          0.60594        1.57391        1.62299
H          0.21041        2.19463       -1.36989
H          1.76236        2.06897       -0.51293
H          0.27855       -0.24520       -1.68468
H          3.73971       -1.68878        0.22720
