19
dsC7O2H10nsd_1190.xyz
C          1.26263        2.10640        0.29814
C          0.91541        0.60606        0.35063
C          2.03334       -0.22100       -0.11656
C          2.93152       -0.91544       -0.51556
C         -0.34701        0.28650       -0.44466
C         -1.68864        0.17844        0.25779
O         -2.85492        0.57412       -0.39742
C         -1.02480       -1.05744       -0.25186
O         -0.51538       -1.94504        0.69753
H          0.42898        2.69744        0.68921
H          2.15271        2.32313        0.89454
H          1.45787        2.42355       -0.73059
H          0.72870        0.33251        1.39626
H          3.73585       -1.51622       -0.86225
H         -0.36774        0.67928       -1.45785
H         -1.68072        0.30455        1.34154
H         -2.87748        1.53672       -0.41175
H         -1.47755       -1.50977       -1.13349
H          0.36712       -2.20497        0.40591
