19
dsC7O2H10nsd_3005.xyz
C         -2.43671        0.29025       -0.57866
C         -0.99148       -0.17998       -0.66348
C         -0.53185       -1.36611        0.24486
C         -0.36554       -0.34243        1.40555
C          0.05237        0.60703        0.22955
O          0.11560        1.97697        0.31792
C          1.32277       -0.08132       -0.21951
O          2.35193        0.47747       -0.50662
C          0.93180       -1.56465       -0.21490
H         -2.54097        1.26811       -1.05866
H         -3.09564       -0.41223       -1.10017
H         -2.80052        0.38811        0.44717
H         -0.70738       -0.27671       -1.71862
H         -1.14663       -2.25646        0.36174
H         -1.30495       -0.03865        1.86468
H          0.37585       -0.55647        2.18075
H          1.01173        2.22233        0.03653
H          1.03418       -2.01018       -1.20945
H          1.54590       -2.13999        0.48513
