19
dsC7O2H10nsd_1876.xyz
O         -1.96932        1.13678       -0.27359
C         -0.72937        0.68146        0.17219
C         -0.69303       -0.21488        1.39750
C         -0.35348       -0.76764        0.02428
O         -1.28382       -1.58762       -0.62442
C          1.09279       -0.85372       -0.43474
C          2.19701       -0.36387        0.46886
C          1.61425        0.56697       -0.56444
C          0.48740        1.53879       -0.18379
H         -2.37933        0.39151       -0.73361
H          0.07063       -0.10798        2.15974
H         -1.67481       -0.48290        1.77648
H         -1.42165       -2.38071       -0.09649
H          1.30489       -1.61776       -1.17331
H          1.99761       -0.19744        1.52174
H          3.19513       -0.74406        0.27628
H          2.25236        0.85047       -1.39399
H          0.77374        2.22661        0.61928
H          0.21305        2.14635       -1.05116
