19
dsC7O2H10nsd_0394.xyz
C         -1.74993       -1.11196        0.75000
C         -1.71834       -1.04978       -0.77151
C         -0.99626       -0.03405        0.04863
O         -1.37752        1.34160        0.09196
C         -0.00639        1.75244       -0.12145
C          0.48923        0.29834        0.00979
C          1.50318       -0.15327        1.07815
C          2.31320       -0.68407       -0.11895
O          1.28755       -0.25588       -1.04476
H         -2.67193       -0.82229        1.24272
H         -1.19333       -1.89600        1.25459
H         -1.11872       -1.77278       -1.31410
H         -2.62107       -0.72313       -1.27605
H          0.15233        2.16856       -1.12343
H          0.33239        2.46278        0.64099
H          1.96648        0.65302        1.64941
H          1.13031       -0.91300        1.76743
H          3.26789       -0.18068       -0.30996
H          2.46730       -1.76816       -0.15710
