19
dsC7O2H10nsd_4675.xyz
C          2.42441       -1.24188       -0.44842
C          1.78357       -0.34763        0.63079
C          0.96574        0.76584        0.00251
O          1.39686        1.89279       -0.10997
C         -0.42705        0.47842       -0.54793
C         -1.15133       -0.88874       -0.39717
C         -2.51473       -0.17375       -0.55412
C         -1.63060        0.61761        0.43579
O         -1.24535       -0.66669        1.06917
H          3.08734       -0.65887       -1.09479
H          3.01609       -2.03413        0.01841
H          1.67163       -1.72067       -1.08284
H          1.13802       -0.94181        1.28207
H          2.56545        0.12410        1.23202
H         -0.55295        1.00078       -1.49984
H         -0.84728       -1.87962       -0.73418
H         -2.75584        0.28367       -1.51615
H         -3.35673       -0.69420       -0.09735
H         -1.87789        1.45264        1.09037
