19
dsC7O2H10nsd_1622.xyz
C         -1.58099        1.55627       -0.12975
C         -1.07051        0.13796       -0.03837
C         -1.86970       -0.99096       -0.53804
O         -1.76751       -0.73423        0.86523
C          0.41586       -0.00898        0.03612
C          1.41980        0.65053        1.02510
C          2.19845       -0.02713       -0.12312
C          1.30195       -1.28036        0.00496
O          1.22577        0.54231       -1.08801
H         -1.15480        2.05350       -1.00590
H         -2.67082        1.56885       -0.20391
H         -1.28986        2.12679        0.75811
H         -2.84546       -0.79186       -0.97899
H         -1.37770       -1.89732       -0.88497
H          1.43703        1.74071        1.01373
H          1.49991        0.22687        2.02888
H          3.25468        0.04266       -0.37988
H          1.21972       -1.88032       -0.90212
H          1.37213       -1.87840        0.91587
