19
dsC7O2H10nsd_4211.xyz
C          2.28642       -1.10901        0.13947
C          0.85645       -0.59565        0.32351
C         -0.17150       -1.42414       -0.46990
C         -1.55876       -0.82222       -0.42660
C         -2.10715       -0.21033        0.85259
C         -1.63669        0.66442       -0.27590
O         -0.46003        1.44025       -0.17451
C          0.77317        0.89687        0.00638
O          1.72993        1.62088       -0.05145
H          2.98982       -0.51792        0.72740
H          2.35471       -2.15612        0.45013
H          2.59261       -1.04142       -0.90887
H          0.60339       -0.67453        1.39017
H          0.15442       -1.48309       -1.51669
H         -0.17631       -2.45139       -0.08744
H         -2.28185       -1.28112       -1.09410
H         -3.17481       -0.26655        1.03297
H         -1.50304       -0.25012        1.75148
H         -2.36980        1.23361       -0.83474
