19
dsC7O2H10nsd_2683.xyz
C         -1.26357        2.49764        0.11846
C         -0.67658        1.13453        0.40068
C         -1.03475       -0.04973       -0.46163
C         -1.34003       -1.36888        0.15386
O         -2.14851       -2.13330       -0.31801
C          0.39298        0.54761       -0.48025
C          1.54291       -0.17938        0.14789
C          2.82371       -0.21251       -0.66168
O          1.45997       -0.69715        1.24232
H         -2.25753        2.59384        0.56711
H         -0.63024        3.28960        0.53148
H         -1.36425        2.67249       -0.95739
H         -0.53045        0.88818        1.45005
H         -1.61352        0.14393       -1.35983
H         -0.79283       -1.59857        1.08742
H          0.62275        1.07796       -1.39920
H          3.17050        0.80762       -0.86400
H          3.59288       -0.76301       -0.11970
H          2.64287       -0.68415       -1.63450
