19
dsC7O2H10nsd_5297.xyz
C         -2.71642        0.22768        0.42437
C         -1.69488       -0.34976       -0.56256
C         -0.27869        0.03321       -0.23698
O         -0.05706        1.42584       -0.25976
C          1.33995        1.55359        0.07811
C          1.73937        0.10006        0.25121
C          0.96334       -0.72366       -0.82040
O          0.75796       -1.83200        0.11598
C          0.54056       -0.63077        0.92697
H         -3.73282       -0.06565        0.14645
H         -2.53137       -0.13421        1.44132
H         -2.66642        1.31946        0.44209
H         -1.73808       -1.44366       -0.57132
H         -1.92291       -0.00525       -1.57845
H          1.87357        2.06026       -0.73485
H          1.44893        2.14812        0.99314
H          2.75978       -0.17214        0.51278
H          1.23358       -0.96121       -1.84964
H          0.30917       -0.75861        1.98454
