19
dsC7O2H10nsd_1075.xyz
C         -2.18476       -0.73787       -0.42113
C         -1.22862        0.41976       -0.20971
O         -1.45986        1.52994       -0.62998
C          0.08307        0.09482        0.52152
C         -0.14145       -0.67447        1.82862
C          1.09194        1.28156        0.54026
C          1.95505        0.60694       -0.56975
C          1.05236       -0.62313       -0.46686
O          1.07573       -1.73600       -0.90604
H         -2.69286       -0.98231        0.51819
H         -2.93310       -0.45675       -1.16296
H         -1.64109       -1.63298       -0.74008
H          0.81507       -0.86902        2.32276
H         -0.76700       -0.10106        2.52059
H         -0.62008       -1.63914        1.64398
H          0.64218        2.23285        0.26036
H          1.61214        1.38091        1.49445
H          1.88116        1.08845       -1.55038
H          3.01107        0.42194       -0.35650
