19
dsC7O2H10nsd_3349.xyz
C          1.12119        2.05023       -0.25234
C          1.08187        0.52958       -0.37915
C          0.88003       -0.30170        0.90969
C         -0.53742        0.07784        1.37095
C         -1.25478        0.22437        0.01177
O         -2.40670        0.51091       -0.17673
C         -0.18054       -0.08389       -1.03861
C          0.14369       -1.58551       -0.85108
O          0.82964       -1.64849        0.41304
H          1.23134        2.51273       -1.23822
H          0.21321        2.46205        0.19820
H          1.97243        2.36828        0.35862
H          1.98673        0.18028       -0.88733
H          1.66200       -0.24386        1.66709
H         -1.00199       -0.70139        1.98017
H         -0.58218        1.01775        1.93015
H         -0.44438        0.20828       -2.05376
H         -0.74914       -2.22075       -0.82437
H          0.80424       -1.94829       -1.64858
