19
dsC7O2H10nsd_2676.xyz
C          0.19364        2.30653       -0.29958
C          0.43450        0.95920        0.37591
C         -0.82534        0.23720        0.96323
O         -0.33977       -1.11225        1.07410
C         -0.07500       -1.28968       -0.33157
C         -1.37932       -0.83464       -0.96654
C         -1.85604        0.10967       -0.15663
C          1.00574       -0.17982       -0.53783
O          2.28329       -0.62992       -0.12766
H          1.13521        2.72997       -0.66309
H         -0.48235        2.21074       -1.15444
H         -0.24558        3.02889        0.39809
H          1.15252        1.09177        1.19174
H         -1.17220        0.60071        1.93038
H          0.27740       -2.29926       -0.53971
H         -1.76149       -1.16974       -1.92078
H         -2.72806        0.73573       -0.28470
H          1.11307        0.12370       -1.58166
H          2.17427       -0.96595        0.77061
