19
dsC7O2H10nsd_3722.xyz
O         -2.45786       -0.69227       -0.78413
C         -1.92791        0.36032       -0.03139
C         -1.32502        0.08572        1.32305
C         -0.44182        0.37213        0.13650
C          0.53444        1.53800       -0.10668
C          1.52509        0.53160       -0.75835
C          2.40911       -0.24572        0.23484
O          1.40644       -1.27354        0.41764
C          0.51385       -0.62723       -0.51426
H         -3.25129       -1.00720       -0.33898
H         -2.42007        1.32342       -0.17939
H         -1.41915        0.84379        2.09466
H         -1.33337       -0.93918        1.68062
H          0.15355        2.28966       -0.80457
H          0.90970        2.05022        0.78524
H          1.95150        0.78350       -1.72781
H          3.32905       -0.66371       -0.19299
H          2.65585        0.27235        1.17115
H          0.10919       -1.31536       -1.25825
