19
dsC7O2H10nsd_0391.xyz
C          2.54121       -0.01519        0.29372
O          1.87482       -0.68378       -0.78773
C          1.10989        0.16443        0.05028
C          0.34604        1.39943       -0.43008
C         -0.80857        1.02222        0.55162
C         -2.10148        0.55471       -0.11394
O         -1.78285       -0.69945       -0.70210
C         -0.95378       -1.38941        0.22816
C         -0.07059       -0.32320        0.89575
H          2.87822       -0.66064        1.10474
H          3.24430        0.76276       -0.00286
H          0.83200        2.36267       -0.25722
H          0.05446        1.32658       -1.48169
H         -0.96361        1.72135        1.37339
H         -2.90340        0.44530        0.63592
H         -2.45719        1.21508       -0.91037
H         -1.56698       -1.89960        0.98779
H         -0.37788       -2.13539       -0.32505
H          0.14802       -0.55015        1.94090
