19
dsC7O2H10nsd_4014.xyz
O          3.00390       -0.05447       -0.03438
C          1.65965       -0.00880       -0.46111
C          0.97822        1.29116        0.04769
C         -0.04243        0.45537        0.86459
C          0.65537       -0.84876        0.38201
O         -0.50293       -1.24216       -0.38318
C         -1.22151       -0.08329        0.06628
C         -2.22160        0.60842       -0.79735
C         -2.66329       -0.16840        0.43940
H          3.37609       -0.89908       -0.30967
H          1.55526       -0.20555       -1.53615
H          1.67093        1.84876        0.68143
H          0.56145        1.95865       -0.70956
H         -0.22033        0.72110        1.90559
H          1.04981       -1.64718        1.01643
H         -2.26881        1.69268       -0.77684
H         -2.43047        0.16283       -1.76400
H         -3.00998        0.38704        1.30513
H         -3.15813       -1.12031        0.27903
