19
dsC7O2H10nsd_0388.xyz
C          1.87127       -0.77286       -0.78198
C          2.49748        0.09065        0.30617
C          1.02911        0.13513        0.04574
O          0.37595        1.29268       -0.48689
C         -0.76124        1.09891        0.39372
C         -2.01588        0.62065       -0.32856
C         -1.71789       -0.87187       -0.55269
O         -0.96178       -1.28178        0.59057
C         -0.13985       -0.20088        0.97037
H          2.04886       -0.47862       -1.81096
H          1.77901       -1.84152       -0.61861
H          2.85012       -0.38578        1.21568
H          3.07947        0.94766       -0.01551
H         -0.90987        1.95927        1.05080
H         -2.88393        0.74687        0.32721
H         -2.19163        1.17044       -1.25590
H         -2.60873       -1.50191       -0.60247
H         -1.13361       -1.01419       -1.47168
H          0.07891       -0.28776        2.03543
