19
dsC7O2H10nsd_0499.xyz
C         -1.95718        0.78625        0.23530
C         -1.95315       -0.74460       -0.15003
C         -0.42480       -0.63494       -0.11549
C          0.42330       -0.86648        1.14776
C          1.53072       -0.68153        0.10092
C          1.74301        0.83223       -0.12555
O          0.54480        1.58104        0.14216
C         -0.54113        0.85141       -0.39028
O          0.62685       -1.22919       -0.92371
H         -2.73281        1.41691       -0.19957
H         -1.93576        0.92537        1.31814
H         -2.42687       -1.44962        0.53508
H         -2.33798       -0.90332       -1.16065
H          0.35429       -0.15639        1.97250
H          0.35085       -1.89912        1.49183
H          2.47129       -1.23364        0.15631
H          2.50512        1.21738        0.55908
H          2.07847        0.99690       -1.16055
H         -0.62440        1.01662       -1.47564
