19
dsC7O2H10nsd_0141.xyz
C         -0.93942       -0.85514       -1.09068
C         -1.48459        0.45497       -0.55388
C         -0.47018        1.44927       -0.00390
C          1.00749        1.41432       -0.37828
C          1.80310        0.23506        0.19168
O          1.36412       -1.04640       -0.23613
C          0.00859       -1.34827        0.02960
O         -0.44948       -0.74779        1.22631
C         -1.13749        0.44281        0.90765
H         -1.75844       -1.56823       -1.23077
H         -0.39103       -0.77478       -2.03221
H         -2.43819        0.81745       -0.91906
H         -0.87312        2.45386        0.09759
H          1.11631        1.43681       -1.47025
H          1.48436        2.32722       -0.00114
H          2.84287        0.29932       -0.14195
H          1.79463        0.28734        1.28731
H         -0.01986       -2.43247        0.16752
H         -1.79969        0.74880        1.70837
