19
dsC7O2H10nsd_4270.xyz
C         -2.49998       -0.03122        0.09884
C         -1.12667       -0.68309        0.14922
O         -0.52337       -0.64728       -1.18215
C          0.73024        0.03728       -1.07641
C          1.72897       -0.86585       -0.33436
C          1.16473       -0.85967        1.13530
C         -0.09489        0.03957        1.03813
C          0.41101        1.06871        0.01701
O          0.53168        2.25878        0.06450
H         -3.10554       -0.50184       -0.68073
H         -3.01843       -0.14647        1.05651
H         -2.42027        1.03661       -0.12806
H         -1.22395       -1.73737        0.44166
H          1.02358        0.41446       -2.05390
H          1.73664       -1.86364       -0.77823
H          2.74464       -0.46138       -0.37958
H          0.90885       -1.86315        1.48535
H          1.88915       -0.43791        1.83672
H         -0.48160        0.43438        1.97515
