19
dsC7O2H10nsd_0847.xyz
O         -3.43035       -0.00040        0.21216
C         -2.39162        0.00032       -0.39475
C         -1.01232        0.00026        0.23228
C         -0.24255        1.26606       -0.19664
C          1.19161        1.28190        0.36780
C          1.94689       -0.00015        0.04371
O          3.05922       -0.00028       -0.42779
C          1.19126       -1.28202        0.36768
C         -0.24289       -1.26574       -0.19675
H         -2.37909        0.00102       -1.51170
H         -1.15256        0.00019        1.31961
H         -0.20030        1.30751       -1.29335
H         -0.77769        2.16359        0.13046
H          1.76470        2.13154       -0.01056
H          1.14347        1.37136        1.46232
H          1.76412       -2.13178       -0.01074
H          1.14309       -1.37156        1.46219
H         -0.20065       -1.30713       -1.29347
H         -0.77830       -2.16313        0.13029
