19
dsC7O2H10nsd_5567.xyz
C         -0.01801        2.25012       -0.05399
C         -0.39247        0.80473        0.08860
C         -1.44748        0.10432       -0.79367
O         -1.17996       -1.29783       -0.80296
C         -0.88628       -1.15544        0.62041
C         -1.67146        0.20492        0.67683
C          0.44686       -0.35865        0.65043
C          1.64778       -0.90028       -0.11294
O          2.74707        0.00675       -0.10406
H          0.38260        2.65368        0.88243
H          0.73959        2.40094       -0.83278
H         -0.88711        2.85720       -0.33144
H         -1.94134        0.55374       -1.64569
H         -1.05489       -2.06662        1.19051
H         -2.46092        0.60599        1.29736
H          0.72391       -0.13458        1.68664
H          2.01306       -1.81283        0.37290
H          1.34946       -1.16837       -1.13405
H          2.52515        0.74109       -0.68376
