19
dsC7O2H10nsd_0326.xyz
C         -0.84761        1.04968        1.10712
C         -0.55979        1.23724       -0.41646
C          0.94441        1.16372       -0.72775
O          1.68528        0.47966        0.27590
C          1.44444       -0.90777        0.41717
C         -0.00867       -1.34611        0.28824
O         -0.45909       -1.18795       -1.09153
C         -1.31634       -0.11824       -0.68351
C         -1.16815       -0.43168        0.81806
H         -0.04095        1.28973        1.79940
H         -1.75778        1.57279        1.41429
H         -0.99514        2.12016       -0.89144
H          1.10741        0.71131       -1.71596
H          1.36532        2.17354       -0.73383
H          2.01267       -1.47812       -0.33635
H          1.83221       -1.17878        1.40643
H         -0.08788       -2.39542        0.59602
H         -2.25445       -0.07659       -1.24015
H         -1.92063       -0.95342        1.40940
