19
dsC7O2H10nsd_0711.xyz
O          2.84794       -0.07238       -0.20490
C          1.66284       -0.01497        0.03403
C          0.97786        1.33121        0.25688
C         -0.42551        1.50351       -0.35818
C         -1.48919        0.73404        0.39937
C         -2.51986       -0.09362       -0.34288
C         -1.40046       -0.77216        0.38047
O         -0.40856       -1.34818       -0.41480
C          0.87884       -1.33119        0.17792
H          0.90920        1.47579        1.34556
H          1.67375        2.08775       -0.11630
H         -0.67691        2.56967       -0.35844
H         -0.40616        1.19131       -1.40670
H         -1.80551        1.18747        1.33548
H         -3.52026       -0.17780        0.06609
H         -2.46889       -0.09732       -1.42631
H         -1.61881       -1.32978        1.29221
H          0.81882       -1.57719        1.25177
H          1.47261       -2.10624       -0.31147
