19
dsC7O2H10nsd_5496.xyz
O         -2.73208        0.18498       -0.46433
C         -1.90720       -0.91182       -0.03251
C         -0.45094       -0.70154       -0.38117
C          0.61218       -0.83629        0.71674
C          2.00763       -1.03864        0.23822
C          2.43988        0.00680       -0.47405
C          1.41070        1.11279       -0.54038
C          0.19903        0.53155        0.19211
O         -0.57924        1.41144        0.93830
H         -2.64528        0.25823       -1.42078
H         -2.04509       -0.94962        1.05070
H         -2.27939       -1.85711       -0.44947
H         -0.15381       -1.01500       -1.38071
H          0.28926       -1.19819        1.68693
H          2.57444       -1.94085        0.43865
H          3.40876        0.08128       -0.95421
H          1.74949        2.02002       -0.02237
H          1.17506        1.41045       -1.57032
H         -1.45067        1.44230        0.51610
