19
dsC7O2H10nsd_5613.xyz
C          2.41941       -0.92755        0.69667
C          1.62614       -0.11556       -0.33732
C          1.48071        1.36152       -0.06047
C          0.21345        1.77791       -0.09988
C         -0.75686        0.66822       -0.41088
C         -1.91627        0.46183        0.58887
O         -2.78482       -0.56436        0.17167
C          0.15892       -0.56217       -0.43566
O         -0.22262       -1.71082       -0.45041
H          3.47427       -0.63852        0.69315
H          2.02563       -0.76645        1.70487
H          2.34759       -1.99381        0.46783
H          2.08450       -0.28024       -1.32546
H          2.33796        1.99613        0.13574
H         -0.11034        2.80033        0.06080
H         -1.21768        0.78757       -1.40269
H         -1.49725        0.26888        1.59059
H         -2.50913        1.38068        0.65653
H         -2.22906       -1.33832        0.00056
