19
dsC7O2H10nsd_2141.xyz
C         -2.41678        0.01501       -0.31146
C         -0.93292        0.08219       -0.05168
C         -0.26136        1.43970       -0.27443
C          1.18174        1.34412        0.28540
C          1.61237       -0.11174        0.13896
O          1.22107       -0.57200       -1.19794
C          0.00160       -1.05863       -0.63534
C          0.52882       -1.05662        0.79112
O         -0.59030       -0.34816        1.31950
H         -2.63483        0.30640       -1.34445
H         -2.79559       -0.99808       -0.14757
H         -2.95596        0.69325        0.35789
H         -0.24275        1.66149       -1.34572
H         -0.83035        2.23084        0.22324
H          1.86396        2.00572       -0.25550
H          1.20642        1.62409        1.34291
H          2.66830       -0.30780        0.33746
H         -0.46088       -1.87547       -1.19221
H          0.85466       -1.90338        1.39606
