19
dsC7O2H10nsd_4066.xyz
C          2.75617        0.59279        0.34568
C          1.38657        0.36993       -0.26430
O          1.23667       -0.99157       -0.75483
C          0.13948       -1.25039        0.13359
C         -1.21432       -0.93740       -0.48447
C         -2.17116       -0.50775        0.60823
C         -1.15420        0.47462        0.09769
O         -1.50100        1.65239       -0.54053
C          0.20941        0.20125        0.72230
H          2.93512       -0.10280        1.17171
H          3.53511        0.43747       -0.40713
H          2.84335        1.61709        0.72543
H          1.19537        1.09774       -1.06249
H          0.26460       -2.17730        0.70067
H         -1.55228       -1.26642       -1.45904
H         -3.18174       -0.31841        0.26044
H         -2.10794       -0.92934        1.60959
H         -1.91651        2.23727        0.10272
H          0.38784        0.45982        1.76864
