19
dsC7O2H10nsd_1201.xyz
C         -1.52894        1.84306        0.08248
C         -1.04882        0.40931        0.38216
C         -2.09151       -0.57174        0.09445
C         -2.96725       -1.35269       -0.16504
C          0.22821        0.08007       -0.41127
O          1.22329        1.02859       -0.09569
C          2.46347        0.33944       -0.16124
C          2.08870       -1.04789        0.35964
O          0.74018       -1.19953       -0.06969
H         -0.74587        2.56086        0.33447
H         -1.77778        1.95282       -0.97758
H         -2.42537        2.07137        0.66357
H         -0.77146        0.33732        1.44162
H         -3.73190       -2.05642       -0.38247
H          0.01275        0.08847       -1.49371
H          2.83361        0.29289       -1.19632
H          3.18902        0.87160        0.45741
H          2.69426       -1.85330       -0.06645
H          2.15189       -1.09554        1.45542
