19
dsC7O2H10nsd_1134.xyz
C          2.96996        0.42686       -0.57035
C          1.79070       -0.28600        0.06060
O          1.93062       -1.12157        0.92455
C          0.40340        0.12936       -0.42325
C         -0.17168        1.27484        0.47059
C         -1.68573        1.21670        0.23074
C         -1.98316       -0.25335       -0.09791
O         -3.07720       -0.74537       -0.18598
C         -0.65256       -0.97619       -0.30845
H          3.05235        0.13441       -1.62420
H          2.82163        1.51236       -0.55596
H          3.89184        0.16691       -0.04922
H          0.47120        0.49548       -1.45463
H          0.05277        1.04897        1.51897
H          0.26822        2.24763        0.23861
H         -2.29724        1.56387        1.06684
H         -1.97371        1.81058       -0.64661
H         -0.43733       -1.57799        0.58428
H         -0.70267       -1.65999       -1.15850
