19
dsC7O2H10nsd_4456.xyz
O          2.43875       -1.11370       -0.09848
C          1.29382       -0.40890        0.33364
C          1.41844        1.16716        0.14243
C          0.00265        1.77021       -0.20361
C         -0.84734        0.52897       -0.09286
C         -1.42295       -0.15671        1.18283
C         -1.44308       -1.14963        0.01218
O         -1.98834       -0.05049       -0.85557
C         -0.00891       -0.69577       -0.41711
H          2.50459       -1.01632       -1.05481
H          1.21887       -0.63952        1.39845
H          1.85439        1.62744        1.03220
H          2.11924        1.35087       -0.67831
H         -0.29489        2.57537        0.47272
H         -0.01671        2.16163       -1.22476
H         -0.76105       -0.34919        2.02943
H         -2.40394        0.20742        1.48891
H         -1.93620       -2.11703       -0.08279
H          0.15668       -0.81921       -1.49366
