19
dsC7O2H10nsd_4416.xyz
O         -2.20868       -1.31073       -0.11738
C         -1.58840       -0.19752        0.46863
C         -1.77861        1.19573       -0.18118
O         -0.35031        1.37791       -0.30794
C         -0.10451        0.05514        0.18813
C          1.06462       -0.34747        1.00408
C          2.32522        0.37007        0.50230
C          2.08541       -0.21208       -0.92884
C          0.82934       -0.93206       -0.42198
H         -1.95240       -1.33771       -1.04624
H         -1.84641       -0.23502        1.52943
H         -2.28227        1.15775       -1.15660
H         -2.23825        1.97462        0.43621
H          0.94742       -0.81998        1.97395
H          2.31294        1.45916        0.59707
H          3.23965       -0.01589        0.95680
H          1.91656        0.51414       -1.72868
H          2.87547       -0.90053       -1.23440
H          0.50079       -1.92483       -0.71184
