19
dsC7O2H10nsd_6007.xyz
O         -3.57483       -0.02316        0.27387
C         -2.37484        0.26851       -0.42648
C         -1.24693       -0.51291        0.23765
C          0.10057       -0.32804       -0.45211
C          0.78864        1.01843       -0.19070
C          2.29272        0.68908       -0.20623
O          2.44141       -0.69235       -0.53229
C          1.29928       -0.92569        0.33910
C          1.51081        0.47077        1.04024
H         -4.29131        0.46775       -0.13863
H         -2.45112       -0.02148       -1.48744
H         -2.15106        1.34706       -0.39952
H         -1.18179       -0.20682        1.28881
H         -1.52064       -1.57555        0.23143
H          0.05697       -0.66226       -1.49632
H          0.41473        2.02157       -0.35360
H          3.08015        1.38276       -0.46907
H          1.27896       -1.92006        0.78175
H          1.61101        0.81020        2.06116
