19
dsC7O2H10nsd_3188.xyz
C          2.51147        0.38652       -0.07006
C          1.14264       -0.22349       -0.02472
C          0.71750       -1.62503       -0.47106
C         -0.60448       -1.35064        0.28992
C          0.14342       -0.23106        1.12457
C         -0.12675        0.65573       -0.06878
O         -0.06674        2.03458       -0.06163
C         -1.29407       -0.21777       -0.53185
O         -2.54806        0.19747       -0.04466
H          2.87277        0.47551       -1.10227
H          2.50474        1.38852        0.36970
H          3.23731       -0.22210        0.48036
H          0.64624       -1.83914       -1.54539
H          1.32475       -2.39714        0.01258
H         -1.21856       -2.14943        0.69919
H          0.26295       -0.02042        2.17754
H          0.18705        2.33673       -0.94152
H         -1.43201       -0.40502       -1.60352
H         -2.40521        0.61050        0.81550
