19
dsC7O2H10nsd_2705.xyz
C          2.59405       -0.00828       -0.39651
C          1.11623       -0.12379       -0.17719
C          0.46458       -1.03550        0.86728
O         -0.80975       -0.48256        1.22340
C         -0.99542       -0.22382       -0.21562
C         -2.42549       -0.17954       -0.64847
C          0.14329       -1.24533       -0.57185
C          0.02923        0.92745       -0.43551
O         -0.07871        2.04557        0.39669
H          2.82527        0.25115       -1.43572
H          3.01977        0.77090        0.24509
H          3.10902       -0.94760       -0.16720
H          1.00041       -1.63273        1.59347
H         -2.93451        0.65907       -0.16176
H         -2.49098       -0.03777       -1.73157
H         -2.94591       -1.10353       -0.38194
H          0.21987       -2.08536       -1.24755
H          0.04235        1.26991       -1.47444
H         -0.29642        1.68474        1.26808
