19
dsC7O2H10nsd_1328.xyz
C          0.43531        1.96611        0.14856
C          0.59342        0.51905       -0.34752
C          1.94092       -0.01143        0.11969
O          2.84039       -0.32232       -0.61946
C         -0.55671       -0.40784        0.14711
C         -0.36756       -1.84803       -0.36594
O         -0.48950       -0.37766        1.57754
C         -1.85777        0.10327       -0.31232
C         -2.93973        0.48257       -0.67493
H          0.45906        2.00664        1.24037
H          1.23946        2.59492       -0.24401
H         -0.51966        2.37857       -0.18623
H          0.59924        0.49173       -1.44090
H          2.05417       -0.06676        1.22344
H         -1.18575       -2.48296       -0.01333
H         -0.36243       -1.87680       -1.45889
H          0.57687       -2.25694        0.00220
H         -1.26309       -0.83804        1.91981
H         -3.89240        0.82722       -0.99505
