19
dsC7O2H10nsd_4245.xyz
O          2.06634       -0.93101        0.37644
C          1.37375       -0.14468       -0.58870
C          1.06646        1.31695       -0.12788
C         -0.41334        1.25837        0.27803
C         -0.59049        0.19007        1.40055
C         -0.91315       -0.98535        0.46014
O         -2.05564       -0.43674       -0.27600
C         -1.05622        0.41422       -0.87944
C         -0.02014       -0.72928       -0.79866
H          2.94888       -0.56258        0.48289
H          1.93419       -0.14210       -1.53429
H          1.72666        1.63070        0.68721
H          1.21621        2.01275       -0.96256
H         -0.87554        2.22482        0.47902
H          0.30701        0.04202        2.00209
H         -1.44523        0.39064        2.04953
H         -1.08455       -1.97805        0.87364
H         -1.37276        0.91295       -1.79576
H         -0.12166       -1.51097       -1.54949
