19
dsC7O2H10nsd_5873.xyz
O         -4.48128        0.22299       -0.15667
C         -3.10286        0.49914        0.00798
C         -2.24777       -0.78390       -0.00153
C         -0.83097       -0.51675        0.20825
C          0.33140       -0.25045        0.38732
C          1.71604        0.04824        0.60613
C          2.36020        1.28502       -0.02557
C          2.72454       -0.08738       -0.51011
O          3.94989       -0.64500       -0.14317
H         -4.61357       -0.10831       -1.05062
H         -2.72867        1.19612       -0.75615
H         -3.00402        0.99474        0.97792
H         -2.63042       -1.45960        0.77315
H         -2.39445       -1.30212       -0.96033
H          2.11298       -0.21744        1.58158
H          1.73789        1.91176       -0.65351
H          3.09117        1.80600        0.58262
H          2.33644       -0.40149       -1.47803
H          4.64019       -0.20701       -0.65271
