19
dsC7O2H10nsd_3537.xyz
C         -2.37360       -0.21541        0.98351
C         -1.53861       -0.25923       -0.30151
C         -0.89888        1.11029       -0.64595
C          0.52850        1.05191       -0.08879
O          1.21382        1.98455        0.24590
C          0.91649       -0.40613        0.03347
C          2.15372       -0.81976        0.76890
O          0.59902       -1.08304       -1.21049
C         -0.33222       -1.17721       -0.13680
H         -3.23952        0.44182        0.86207
H         -2.74276       -1.21086        1.25199
H         -1.78421        0.16182        1.82722
H         -2.16416       -0.61930       -1.12570
H         -0.83765        1.26617       -1.72755
H         -1.43424        1.96149       -0.21968
H          3.03484       -0.35167        0.32029
H          2.10392       -0.49604        1.81284
H          2.27571       -1.90485        0.73743
H         -0.44701       -2.16736        0.30087
