19
dsC7O2H10nsd_1981.xyz
C          2.76633        0.06871       -0.03562
C          1.26299        0.06688        0.02638
C          0.48353        1.37723       -0.05466
C         -0.95444        0.98135       -0.43397
C         -1.95981        0.51689        0.64663
O         -2.02202       -0.81579        0.08542
C         -0.96056       -0.51614       -0.84234
C          0.40181       -1.04713       -0.43016
O          0.66755       -0.84199        0.96400
H          3.15467       -0.95032        0.03255
H          3.11849        0.51916       -0.96961
H          3.18589        0.64783        0.79452
H          0.53665        1.92378        0.89397
H          0.92543        2.02168       -0.82324
H         -1.39738        1.66385       -1.15987
H         -1.56721        0.50934        1.66884
H         -2.94181        1.00371        0.62863
H         -1.21974       -0.79559       -1.86975
H          0.80164       -1.96802       -0.84896
