19
dsC7O2H10nsd_2888.xyz
C         -2.76351       -0.37938       -0.17097
C         -1.36567       -0.47826        0.43200
C         -0.67063        0.88729        0.62416
C         -0.12566        0.83649       -0.82134
O          1.17724        1.31603       -0.42831
C          0.86866        0.65371        0.84263
C          1.00873       -0.82512        0.39654
O          2.25370       -1.09958       -0.18428
C         -0.20250       -0.74011       -0.56800
H         -2.79060        0.28758       -1.03925
H         -3.11698       -1.36275       -0.49790
H         -3.47985        0.00526        0.56325
H         -1.38280       -1.14622        1.30095
H         -1.13474        1.76527        1.07215
H         -0.53589        1.29925       -1.71572
H          1.44759        1.03213        1.68350
H          0.85051       -1.55090        1.19798
H          2.46432       -0.31230       -0.70732
H         -0.26547       -1.47661       -1.36707
