19
dsC7O2H10nsd_4095.xyz
C         -2.52187       -0.14948       -0.46470
C         -1.03208       -0.37336       -0.61340
O         -0.56758       -1.51975        0.14665
C          0.44724       -0.72950        0.81782
C          1.83311       -0.92156        0.27233
C          2.18878        0.07977       -0.53578
C          1.12645        1.14504       -0.67108
C         -0.05977        0.57732        0.13876
O         -0.75499        1.52168        0.91229
H         -2.84041        0.72101       -1.04725
H         -3.05992       -1.02795       -0.83444
H         -2.78773        0.01603        0.58060
H         -0.76513       -0.48703       -1.67372
H          0.35815       -0.82224        1.90648
H          2.44363       -1.78665        0.50542
H          3.13969        0.14953       -1.05428
H          1.45715        2.10778       -0.25438
H          0.86134        1.34543       -1.71678
H         -0.11727        1.99927        1.45313
