19
dsC7O2H10nsd_0465.xyz
C          2.86923       -0.35966       -0.38592
O          2.54983        0.92745        0.14754
C          1.64072       -0.14989        0.38745
C          0.29992       -0.03163       -0.28572
O         -0.41051       -1.29703       -0.24472
C         -1.46359       -0.73930        0.57243
C         -2.66750       -0.23309       -0.25406
C         -2.00197        1.17832       -0.33854
C         -0.81100        0.67201        0.51984
H          2.81203       -0.44353       -1.47036
H          3.71753       -0.86083        0.07724
H          1.61213       -0.50217        1.41986
H          0.43967        0.33554       -1.31162
H         -1.64826       -1.33743        1.46855
H         -2.80804       -0.76768       -1.19595
H         -3.61057       -0.23591        0.29934
H         -1.73417        1.52834       -1.33920
H         -2.58465        1.96151        0.15095
H         -0.50507        1.25820        1.38571
