19
dsC7O2H10nsd_3509.xyz
O          0.25505        2.04138        0.77305
C          0.12340        1.10497       -0.30128
C         -1.34536        0.97581       -0.60498
C         -2.04919       -0.12909       -0.36342
C         -1.47411       -1.37047        0.26595
C         -0.13723       -1.08315        0.96779
C          0.73328       -0.24315        0.06394
C          2.18885       -0.41713       -0.00443
O          1.34599       -0.94286       -1.03266
H          1.19454        2.22225        0.88719
H          0.64753        1.47239       -1.19750
H         -1.81916        1.85230       -1.03737
H         -3.10235       -0.15949       -0.63338
H         -2.19271       -1.79368        0.97748
H         -1.32879       -2.13784       -0.50716
H         -0.31994       -0.51344        1.88619
H          0.37278       -2.01229        1.23709
H          2.82891        0.41264       -0.30854
H          2.67294       -1.15776        0.63137
