19
dsC7O2H10nsd_3136.xyz
C          1.19866        1.74014       -0.88442
C          0.28046        1.20103        0.22919
C         -1.14520        0.96596       -0.24074
C         -2.07618        0.27455        0.72112
C         -1.39912       -0.52971       -0.35968
C         -0.15538       -1.27569        0.04564
O          0.48465       -1.77320       -1.12922
C          0.76820       -0.19163        0.65590
O          1.76773       -0.43440        1.28378
H          1.18561        1.06998       -1.74910
H          0.86708        2.73115       -1.20891
H          2.22737        1.81901       -0.52305
H          0.33676        1.87064        1.09516
H         -1.56605        1.65158       -0.96757
H         -1.75609        0.14349        1.75226
H         -3.14040        0.45101        0.61382
H         -1.99045       -0.94407       -1.16703
H         -0.33691       -2.08375        0.76809
H          1.32540       -2.15623       -0.85211
