19
dsC7O2H10nsd_0553.xyz
C         -2.26490        0.65759       -0.00026
O         -2.15173       -0.78182       -0.10605
C         -0.83387       -0.76808        0.47610
C         -0.82503        0.78975        0.51865
C          0.25685        0.81021       -0.59665
C          1.67717        1.16891       -0.14213
C          2.15796       -0.11718        0.54802
O          1.54880       -1.18423       -0.17368
C          0.27223       -0.76286       -0.60964
H         -2.48834        1.13185       -0.96468
H         -3.03871        0.93973        0.72499
H         -0.72285       -1.44986        1.32411
H         -0.65210        1.39437        1.40936
H         -0.03607        1.32382       -1.51457
H          2.30247        1.37991       -1.01501
H          1.71120        2.03999        0.51852
H          3.24063       -0.26210        0.50714
H          1.85151       -0.13553        1.60564
H          0.01317       -1.30376       -1.52217
