19
dsC7O2H10nsd_5453.xyz
C          2.95360       -0.40248       -0.32444
O          1.66937       -0.79799        0.10159
C          0.88757        0.26409        0.57921
C          0.24826        1.27597       -0.38027
C         -1.04178        0.65429       -0.91047
C         -1.00941        1.29708        0.46271
C         -0.54394       -0.12354        0.99009
C         -1.16357       -0.74367       -0.29867
O         -2.49317       -1.18755       -0.14823
H          3.52161        0.07708        0.48853
H          3.48481       -1.30300       -0.64120
H          2.90802        0.29758       -1.17206
H          1.41207        0.79815        1.38726
H          0.70981        2.11795       -0.88035
H         -1.51113        1.02352       -1.81413
H         -1.53772        2.12730        0.90601
H         -0.75576       -0.57048        1.95898
H         -0.61557       -1.56837       -0.75824
H         -3.01003       -0.44577        0.18938
