19
dsC7O2H10nsd_5707.xyz
C          2.53316       -1.03520        0.75223
C          2.21372        0.17339       -0.13413
C          0.92446        0.86372        0.26280
C          0.13618        1.67049       -0.74040
C         -0.38123        0.33711       -0.27852
O         -0.48018       -0.81678       -1.12456
C         -1.70665       -1.25574       -0.48924
C         -1.64619       -0.02405        0.43368
O         -2.30551        0.43591        1.31774
H          3.48360       -1.49376        0.46323
H          2.60836       -0.74732        1.80652
H          1.75091       -1.79505        0.66438
H          3.03311        0.90160       -0.08675
H          2.14032       -0.14881       -1.17853
H          0.87554        1.20447        1.29527
H         -0.39828        2.55669       -0.41460
H          0.50633        1.69765       -1.76056
H         -2.55387       -1.28177       -1.18359
H         -1.60126       -2.22500        0.01069
