19
dsC7O2H10nsd_0045.xyz
C         -2.86900        0.44732        0.22066
C         -1.47735       -0.04540        0.04384
C         -0.27525        0.56760       -0.14624
C          0.01887        2.03348       -0.24235
C          0.70256       -0.49509       -0.24367
C          2.17984       -0.34170       -0.41741
O          2.79023        0.37588        0.65648
C          0.00865       -1.65356       -0.09978
O         -1.31475       -1.40643        0.07072
H         -3.30183        0.09505        1.16394
H         -2.88545        1.53916        0.22504
H         -3.52448        0.10265       -0.58771
H          0.87618        2.29318        0.38543
H          0.27490        2.32683       -1.26822
H         -0.83580        2.64075        0.06760
H          2.64378       -1.33128       -0.54862
H          2.41203        0.24390       -1.31390
H          2.50766       -0.04951        1.47311
H          0.29926       -2.69214       -0.10457
