19
dsC7O2H10nsd_0191.xyz
C         -1.47376        0.85651       -0.27312
C         -1.21725       -0.31031        0.69194
C         -0.00000       -0.00006        1.59775
C          1.21725        0.31026        0.69197
C          1.47376       -0.85649       -0.27318
C          0.15110       -0.77376       -1.04619
O         -0.86847       -1.35772       -0.22563
C         -0.15110        0.77384       -1.04613
O          0.86847        1.35773       -0.22553
H         -2.34196        0.63690       -0.90075
H         -1.59223        1.83444        0.19687
H         -2.08644       -0.64414        1.26209
H         -0.21615        0.85984        2.24050
H          0.21615       -0.86001        2.24044
H          2.08644        0.64405        1.26214
H          2.34196       -0.63683       -0.90079
H          1.59223       -1.83445        0.19673
H          0.13495       -1.25787       -2.02314
H         -0.13494        1.25802       -2.02305
