19
dsC7O2H10nsd_3579.xyz
C          0.81458        2.00121        0.67523
C          1.02221        0.86486       -0.30596
O          0.00820        0.82878       -1.34892
C         -0.54970       -0.41127       -0.86855
C         -1.86490       -0.26197       -0.26348
C         -2.91874       -0.14283        0.30631
C          0.63143       -0.57426        0.15948
C          1.63658       -1.64703       -0.21918
O          0.29235       -0.76002        1.50408
H          0.91937        2.96132        0.16115
H         -0.18085        1.96451        1.12594
H          1.55983        1.95150        1.47533
H          2.02108        0.92702       -0.75618
H         -0.57820       -1.17092       -1.65906
H         -3.86936       -0.03852        0.76957
H          1.20330       -2.64088       -0.07433
H          1.94586       -1.54164       -1.26283
H          2.52330       -1.56510        0.41703
H         -0.57750       -0.36960        1.65900
