19
dsC7O2H10nsd_6038.xyz
O          3.65090       -0.40906       -0.47261
C          2.45970       -0.44150        0.29325
C          1.38678        0.51253       -0.23824
C          0.06501        0.43757        0.54800
C         -0.73350       -0.87205        0.35710
C         -2.14013       -0.44499       -0.09933
O         -3.07429       -1.18335       -0.30429
C         -2.11468        1.03089       -0.23372
C         -0.91761        1.50719        0.12326
H          4.02158        0.47688       -0.40736
H          2.10663       -1.47690        0.24218
H          2.65673       -0.22226        1.35603
H          1.77502        1.54042       -0.19260
H          1.20475        0.29257       -1.29706
H          0.30293        0.58723        1.61170
H         -0.29681       -1.51331       -0.41596
H         -0.80965       -1.47806        1.26380
H         -2.97323        1.59925       -0.56758
H         -0.63433        2.55560        0.12012
