19
dsC7O2H10nsd_0185.xyz
C          2.15727       -0.99051       -0.32861
C          2.14949        0.47198        0.00641
C          1.09521        0.74524        1.08595
C          0.00393        0.17509        0.12737
C         -1.10435        1.14377       -0.30119
O         -2.16671        0.27716       -0.66610
C         -2.09796       -0.76800        0.27054
O         -0.73359       -0.95022        0.60285
C          1.08189       -0.12202       -0.91976
H          2.92210       -1.30954       -1.02933
H          1.90253       -1.72933        0.42648
H          2.96862        1.13160       -0.24887
H          1.21751        0.20339        2.02835
H          0.93935        1.80627        1.30250
H         -1.39504        1.79528        0.53943
H         -0.84561        1.76219       -1.16270
H         -2.66780       -0.51933        1.18399
H         -2.50441       -1.67625       -0.18757
H          0.95234       -0.01310       -1.99058
