19
dsC7O2H10nsd_3222.xyz
C          2.70459       -0.30732       -0.51678
C          1.47521       -0.59036        0.32940
C          0.66930        0.58198        0.95339
O          0.36908        1.40271       -0.19579
C         -0.46244        0.45230       -0.87424
C         -1.65933        0.34577        0.11159
O         -2.65406       -0.59065       -0.24569
C         -0.60889       -0.34353        0.98817
C          0.10432       -0.91488       -0.29387
H          3.55511       -0.01228        0.10805
H          3.00310       -1.19676       -1.08224
H          2.50912        0.50146       -1.22485
H          1.68253       -1.33830        1.10375
H          1.01740        1.19327        1.78490
H         -0.56329        0.68789       -1.93351
H         -2.08294        1.30259        0.44463
H         -3.17853       -0.20589       -0.95529
H         -0.83828       -0.92257        1.87993
H         -0.16096       -1.84969       -0.77948
