19
dsC7O2H10nsd_5849.xyz
O         -2.87242       -0.71229       -0.09615
C         -1.94432        0.32720        0.18638
C         -0.52010       -0.02293       -0.26268
C          0.01388       -1.30307        0.39670
C          1.42475       -1.64439       -0.09454
C          2.33131       -0.44674       -0.06352
C          1.88194        0.81418       -0.01525
C          0.44176        1.14779       -0.04361
O          0.05162        2.29535        0.06396
H         -3.02756       -0.71869       -1.04588
H         -2.24732        1.28155       -0.25829
H         -1.96404        0.45804        1.27378
H         -0.53872       -0.18474       -1.35513
H          0.04206       -1.15276        1.48421
H         -0.68170       -2.12497        0.20926
H          1.86017       -2.45221        0.50529
H          1.38891       -2.03397       -1.12432
H          3.40331       -0.63301       -0.08240
H          2.55599        1.66409        0.03019
