19
dsC7O2H10nsd_4051.xyz
C          2.69065       -0.11425        0.47366
C          1.51950       -0.01528       -0.47330
O          0.75964        1.17914       -0.19327
C         -0.55330        0.81115       -0.58627
C         -1.85435        0.71468        0.28345
C         -2.09774       -0.65083       -0.49854
C         -0.59818       -0.60576       -0.08667
C         -1.05257       -0.09700        1.32197
O          0.64031       -1.18216       -0.34288
H          3.26859       -1.01560        0.25464
H          3.33889        0.75813        0.35389
H          2.33794       -0.15910        1.50667
H          1.84614        0.00623       -1.52381
H         -0.71283        0.99169       -1.65592
H         -2.60514        1.48003        0.46722
H         -2.74175       -1.36958        0.01101
H         -2.32540       -0.57651       -1.56453
H         -1.62132       -0.79842        1.93588
H         -0.30877        0.45103        1.89830
