19
dsC7O2H10nsd_3905.xyz
O          2.60728       -0.84217       -0.41040
C          1.66254        0.02037        0.18181
C          0.66255       -0.77719        1.04804
C         -0.53747       -0.17766        0.27331
C         -1.00735        1.23739        0.69905
C         -0.08651        1.89137       -0.37370
C          0.49779        0.50767       -0.73369
C         -1.57327       -1.11722       -0.24662
O         -2.73909       -0.84709       -0.40731
H          3.18267       -0.31803       -0.97758
H          2.15776        0.85065        0.70683
H          0.78346       -1.84566        0.84278
H          0.68041       -0.61551        2.12847
H         -2.07457        1.38322        0.52576
H         -0.77800        1.49325        1.73670
H         -0.64977        2.34252       -1.19365
H          0.64179        2.62482       -0.01336
H          0.57929        0.21402       -1.78136
H         -1.17826       -2.12358       -0.52216
