19
dsC7O2H10nsd_5194.xyz
O         -2.68723        0.24589       -0.35130
C         -1.81395       -0.21818        0.66150
C         -0.37290        0.01001        0.26770
C          0.13397        1.43998        0.09972
C          1.63644        1.24297       -0.24938
C          1.93328       -0.19824        0.17351
C          1.05201       -1.27184       -0.43358
O         -0.11055       -0.68403       -1.02025
C          0.76727       -0.78341        0.94909
H         -2.40317       -0.19086       -1.16387
H         -2.05294        0.34072        1.57320
H         -1.96844       -1.28812        0.86906
H         -0.42559        1.97071       -0.67352
H          0.01298        1.98553        1.04308
H          1.81838        1.38733       -1.31828
H          2.27396        1.94891        0.28990
H          2.94011       -0.49646        0.44519
H          1.39472       -2.22286       -0.82454
H          0.77547       -1.25745        1.92081
