19
dsC7O2H10nsd_1383.xyz
C          3.55064        0.41269        0.23591
C          2.24131       -0.29763       -0.06140
O          2.21094       -1.39375       -0.57298
C          0.97234        0.45520        0.31581
C         -0.30198       -0.37067        0.15795
C         -1.56960        0.49026        0.31425
O         -1.59467        1.57063       -0.61964
C         -2.78066       -0.32932        0.21942
C         -3.76118       -1.01376        0.09581
H          3.68493        0.50650        1.31997
H          4.38388       -0.15297       -0.18257
H          3.54463        1.42941       -0.17142
H          1.08008        0.83481        1.34131
H          0.91223        1.35202       -0.31538
H         -0.31102       -0.84985       -0.82642
H         -0.32789       -1.18353        0.89100
H         -1.54932        0.97973        1.29664
H         -1.81829        1.19928       -1.48070
H         -4.63455       -1.61100        0.00207
