19
dsC7O2H10nsd_2865.xyz
C          1.24742        1.52980        0.89603
C          0.36793        0.70390       -0.00018
C         -0.57567        1.33183       -1.06418
C         -1.43928        0.07989       -0.91850
C         -0.46444       -1.11526       -0.72740
C          0.94999       -0.54789       -0.73994
O          1.87342       -1.29687        0.02026
C         -0.86211       -0.24649        0.43254
O         -1.40290       -0.61666        1.63747
H          1.92701        2.15513        0.30461
H          0.66083        2.19521        1.53920
H          1.86316        0.88796        1.53357
H         -1.08658        2.22544       -0.69181
H         -0.13207        1.54924       -2.04305
H         -2.44260       -0.10333       -1.28249
H         -0.78322       -2.12669       -0.94706
H          1.43790       -0.35927       -1.70271
H          1.40816       -1.63105        0.79697
H         -1.95982        0.10087        1.96079
