19
dsC7O2H10nsd_3931.xyz
C         -2.78772       -0.17713       -0.55263
C         -1.52841       -0.28351        0.27476
O         -1.01683        1.05930        0.64969
C          0.27656        0.60286        0.30440
C          0.99637       -0.40602        1.28670
C          1.16275       -1.13698       -0.04306
O          2.02798       -0.19542       -0.77667
C          1.44878        1.12284       -0.50558
C         -0.21142       -0.60976       -0.51054
H         -3.13010       -1.17604       -0.84361
H         -3.58171        0.30778        0.02311
H         -2.60951        0.41106       -1.45706
H         -1.70104       -0.87705        1.17830
H          1.91097       -0.08106        1.78444
H          0.30699       -0.86985        1.99017
H          1.56895       -2.13710       -0.18465
H          2.17452        1.74017        0.03370
H          1.16264        1.61046       -1.44220
H         -0.33233       -0.51324       -1.59073
