19
dsC7O2H10nsd_5738.xyz
C         -2.74613       -0.65559       -0.54202
O         -1.38235       -0.75745       -0.19709
C         -0.95860        0.21548        0.70888
C         -0.61742        1.61836        0.03918
C          0.78292        1.06063       -0.08799
C          1.63506        0.58697       -0.98773
C          2.17062       -0.73703       -0.46573
O          1.35136       -1.07240        0.67284
C          0.59202        0.06139        1.00336
H         -3.39431       -0.74169        0.34388
H         -2.97878        0.29385       -1.04690
H         -2.96732       -1.47960       -1.22433
H         -1.61886        0.26049        1.58775
H         -1.14271        1.87333       -0.88303
H         -0.71969        2.43805        0.75665
H          1.81809        0.93596       -1.99607
H          2.06788       -1.52576       -1.22334
H          3.22789       -0.70873       -0.15829
H          0.80492        0.39170        2.03007
