19
dsC7O2H10nsd_0974.xyz
O          3.85679       -0.50302       -0.54483
C          3.08337        0.17814        0.07662
C          1.70247       -0.25224        0.51559
C          0.61439        0.69838       -0.01916
C         -0.77966        0.36552        0.50526
C         -1.93527        1.22258       -0.13321
C         -2.51920       -0.07300       -0.71081
O         -2.77678       -0.95026        0.39174
C         -1.44269       -0.88220       -0.11739
H          3.34950        1.22141        0.37187
H          1.54071       -1.28383        0.19075
H          1.68272       -0.23347        1.61512
H          0.86340        1.73075        0.25975
H          0.61283        0.66740       -1.11669
H         -0.78133        0.34273        1.59994
H         -2.59101        1.76392        0.55261
H         -1.56148        1.90681       -0.90006
H         -3.10917       -0.22157       -1.60770
H         -0.98664       -1.81102       -0.44226
