19
dsC7O2H10nsd_2225.xyz
C         -2.32786       -0.26374        0.40180
C         -0.89664        0.02379        0.03589
C         -0.45068        1.43016       -0.42082
C          1.02151        0.99441       -0.39255
O          1.15449        0.78396        1.02412
C          0.27441       -0.34966        1.09411
C          1.12726       -1.35196        0.29806
C          0.93112       -0.50815       -0.97364
O         -0.48033       -0.70180       -1.14352
H         -2.99292       -0.02996       -0.43504
H         -2.46190       -1.31963        0.65637
H         -2.63063        0.34093        1.26177
H         -0.87884        1.65678       -1.39835
H         -0.61356        2.24774        0.28291
H          1.80386        1.65002       -0.76864
H         -0.01700       -0.56101        2.12111
H          2.13609       -1.39887        0.71027
H          0.71057       -2.34938        0.15306
H          1.47627       -0.74296       -1.88529
