19
dsC7O2H10nsd_0541.xyz
C         -1.51534       -1.04212        0.61982
O         -2.23441       -0.00094       -0.08964
C         -1.06060        0.40943       -0.83355
C         -0.38441        1.66651       -0.25059
C          0.41230        0.77165        0.75276
C          1.91954        0.57796        0.51564
C          1.97769       -0.56389       -0.52204
O          0.82465       -1.37427       -0.27660
C         -0.19326       -0.50894        0.09326
H         -1.68571       -1.00802        1.70234
H         -1.76687       -2.04019        0.23754
H         -1.19366        0.30676       -1.91410
H          0.25582        2.18369       -0.97320
H         -1.07356        2.38699        0.19459
H          0.17454        0.93381        1.80552
H          2.42512        1.48124        0.16309
H          2.40572        0.26089        1.44277
H          1.94083       -0.16609       -1.54752
H          2.86037       -1.20089       -0.43290
