19
dsC7O2H10nsd_0449.xyz
C         -3.02059        0.25759       -0.15774
C         -2.55580       -0.95646        0.59935
C         -1.59678       -0.22335       -0.31175
C         -0.48269        0.56087        0.28672
O          0.27561        1.41557       -0.60155
C          0.92290        0.30486       -0.02268
C          2.18964        0.36828        0.82527
O          2.72530       -0.77357        0.11879
C          1.60578       -0.82110       -0.79449
H         -3.69436        0.12016       -0.99556
H         -3.18425        1.17363        0.40004
H         -2.40797       -0.86238        1.67025
H         -2.90626       -1.93289        0.28547
H         -1.34624       -0.70642       -1.25115
H         -0.71159        1.02744        1.24811
H          2.78650        1.27618        0.66890
H          2.08244        0.17865        1.90003
H          1.88987       -0.55513       -1.82075
H          1.10981       -1.79938       -0.79143
