19
dsC7O2H10nsd_0150.xyz
C         -1.83515        0.40099       -0.34544
C         -1.57508       -1.00798        0.18959
O         -0.39754       -1.58698       -0.35820
C          0.81597       -1.24423        0.22372
C          1.75604       -0.25034       -0.37597
O          1.06512        0.82933       -0.99674
C          0.51904        1.24561        0.28980
C         -0.97969        1.50189        0.29413
C          1.11467        0.02034        0.99039
H         -1.65706        0.37800       -1.42527
H         -2.89391        0.64669       -0.19632
H         -1.53381       -1.01345        1.28909
H         -2.38774       -1.67498       -0.11569
H          1.33498       -2.10433        0.64999
H          2.77558       -0.44520       -0.68997
H          1.05107        2.14949        0.61420
H         -1.27538        1.65109        1.34220
H         -1.17558        2.45241       -0.21747
H          1.52647        0.02372        1.99144
