19
dsC7O2H10nsd_2298.xyz
C          1.45992       -1.21214        1.20274
C          0.85186       -0.49005        0.02415
C          1.68799        0.52986       -0.78029
C          0.50292        1.53593       -0.77743
C         -0.31551        0.63934        0.19076
O         -0.73674        1.27259        1.34628
C         -1.25409       -0.37939       -0.41647
O         -2.42829       -0.55281       -0.21660
C         -0.12310       -1.30735       -0.88362
H          1.90538       -0.50276        1.90760
H          0.70904       -1.79557        1.74742
H          2.24651       -1.90495        0.88026
H          2.54671        0.90444       -0.21674
H          2.04126        0.18684       -1.75664
H          0.73003        2.48835       -0.29544
H          0.03098        1.74050       -1.74154
H         -1.55943        0.84805        1.62406
H         -0.28718       -2.34785       -0.59136
H          0.09701       -1.27261       -1.95416
