19
dsC7O2H10nsd_4735.xyz
C         -1.53340        2.08114       -0.04143
C         -1.69903        0.73805       -0.75246
C         -1.09268       -0.46437        0.01720
C         -1.33860       -1.77897       -0.75049
O         -1.64612       -0.55176        1.33458
C          0.35134       -0.27485        0.18522
C          1.54783       -0.12642        0.25605
C          2.96983        0.04782        0.39841
O          3.73966        0.18966       -0.52429
H         -2.05012        2.87343       -0.59035
H         -1.94413        2.03525        0.97031
H         -0.47798        2.35793        0.03660
H         -2.76549        0.51518       -0.89500
H         -1.25229        0.77261       -1.75211
H         -2.41629       -1.92684       -0.88452
H         -0.87065       -1.75460       -1.73787
H         -0.93562       -2.62370       -0.18781
H         -2.58831       -0.72935        1.23320
H          3.32077        0.04245        1.45033
