19
dsC7O2H10nsd_3317.xyz
C          2.17961       -1.08655        0.04385
C          0.85640       -0.53838       -0.50224
C         -0.42965       -1.21152        0.04455
C         -1.60372       -0.70460       -0.80289
O         -1.69422        0.69467       -0.46044
C         -0.75259        0.92578        0.60683
C         -0.70300       -0.41315        1.34669
C          0.62588        0.93375       -0.07743
O          1.37485        1.85810       -0.24517
H          2.18260       -1.13047        1.13779
H          2.36761       -2.09605       -0.33400
H          3.00505       -0.43997       -0.26566
H          0.88771       -0.57978       -1.59760
H         -0.37600       -2.29680        0.13911
H         -1.42926       -0.80068       -1.88052
H         -2.54909       -1.20443       -0.55558
H         -1.02456        1.83523        1.13874
H          0.10480       -0.47426        2.08046
H         -1.65147       -0.66697        1.82594
