19
dsC7O2H10nsd_0584.xyz
C         -1.85094       -0.56159       -0.43860
C         -1.45618        0.91704       -0.67544
C         -0.39241        1.19723        0.43599
O         -0.37624        0.01359        1.25400
C         -0.68368       -1.06036        0.41057
O          0.38078       -1.36940       -0.47928
C          1.67889       -0.95026       -0.07347
C          1.91579        0.53172       -0.27638
C          0.99636        1.47641       -0.08550
H         -2.77752       -0.63798        0.13717
H         -1.95966       -1.13413       -1.36065
H         -1.01925        1.05685       -1.66535
H         -2.31384        1.58699       -0.58679
H         -0.70567        2.01696        1.09017
H         -0.89679       -1.92041        1.05736
H          1.87889       -1.23481        0.96989
H          2.37072       -1.51801       -0.70374
H          2.90735        0.81302       -0.62304
H          1.23250        2.51693       -0.29583
