19
dsC7O2H10nsd_3590.xyz
O         -2.60857       -0.69336        0.36217
C         -1.89028       -0.06823       -0.70245
C         -0.47768       -0.68219       -0.89511
C          0.04888        0.34053        0.16148
O          0.04761       -0.18150        1.47321
C          1.41816        0.98204       -0.06922
C          2.50605        0.01212       -0.11519
C          3.39676       -0.79217       -0.17715
C         -1.22158        1.20268       -0.13311
H         -2.81777       -1.59356        0.08963
H         -2.52703        0.04117       -1.58799
H         -0.34911       -1.74016       -0.65221
H         -0.08028       -0.48767       -1.89550
H         -0.83119       -0.55803        1.61737
H          1.39277        1.54818       -1.00809
H          1.59452        1.70543        0.73652
H          4.18643       -1.50052       -0.21621
H         -1.71072        1.66259        0.72809
H         -1.05182        1.95276       -0.91016
