19
dsC7O2H10nsd_3739.xyz
C         -2.90525       -0.32006       -0.37901
C         -1.47012       -0.79862       -0.37555
C         -0.75874       -1.10446        0.92367
C         -0.36938        0.09507        0.11115
C         -0.40395        1.57588        0.47690
O          0.87322        1.78763       -0.17363
C          0.97841        0.40531       -0.55939
C          2.17402       -0.28362        0.06529
O          2.47254       -1.42720       -0.16783
H         -3.13500        0.25393       -1.28340
H         -3.59946       -1.16574       -0.33449
H         -3.11272        0.32183        0.48397
H         -1.20266       -1.44083       -1.21196
H         -1.29549       -0.92817        1.85171
H         -0.06910       -1.94165        0.95162
H         -1.20005        2.16818        0.00863
H         -0.35876        1.81387        1.54709
H          1.00266        0.26777       -1.64903
H          2.73451        0.35028        0.78907
