19
dsC7O2H10nsd_2751.xyz
C         -1.96162        1.10037        0.65419
C         -0.71248        0.22409        0.68803
C         -0.80022       -0.95421       -0.31288
O         -1.68120       -1.73134       -0.55502
C          0.44522       -0.57022       -1.04835
C          1.56827       -0.34104       -0.07268
O          1.72843       -1.23509        0.99197
C          0.51822        0.71354       -0.11798
C          0.78377        2.13806       -0.51231
H         -1.82578        2.01253        1.24392
H         -2.22538        1.39109       -0.36798
H         -2.80951        0.54776        1.06773
H         -0.47405       -0.07138        1.71400
H          0.62970       -0.70767       -2.10778
H          2.50146       -0.06865       -0.57032
H          2.20619       -0.78106        1.69486
H          1.03436        2.74669        0.36522
H          1.62436        2.20237       -1.21048
H         -0.08616        2.59616       -0.99299
