19
dsC7O2H10nsd_6047.xyz
C          4.09277       -0.40379        0.01003
O          2.79463       -0.26712       -0.51722
C          1.80358       -0.19134        0.48105
C          0.46380       -0.05313       -0.18916
O          0.02275        1.26192       -0.51059
C         -0.68404        0.54663        0.52072
C         -2.03888        0.14462        0.25860
C         -3.18131       -0.18226        0.06247
C         -4.55926       -0.57703       -0.18527
H          4.19374       -1.31880        0.61579
H          4.78324       -0.46099       -0.83456
H          4.37081        0.45609        0.63962
H          1.81145       -1.10296        1.10551
H          1.97261        0.67201        1.14546
H          0.25394       -0.79795       -0.95637
H         -0.50178        0.94151        1.52086
H         -5.23407       -0.16151        0.57094
H         -4.89787       -0.22122       -1.16444
H         -4.67111       -1.66679       -0.17097
