19
dsC7O2H10nsd_5011.xyz
O          2.55062       -0.68957       -0.41597
C          1.86207       -0.06358        0.65353
C          0.41299        0.15051        0.29871
C         -0.55639        1.11177        1.02455
C         -1.13342        1.11726       -0.40791
O          0.25731        1.02899       -0.89267
C         -1.64343       -0.31273       -0.67187
C         -1.80578       -1.27009        0.48274
C         -0.44234       -1.06505       -0.12594
H          2.37047       -0.15839       -1.20096
H          1.94498       -0.72932        1.51934
H          2.32030        0.90074        0.92013
H         -1.15000        0.77917        1.87589
H         -0.06457        2.05957        1.24208
H         -1.68741        1.95686       -0.82591
H         -2.08214       -0.53808       -1.63611
H         -2.04357       -0.91963        1.47993
H         -2.28534       -2.21386        0.23898
H          0.05173       -1.86095       -0.66723
