19
dsC7O2H10nsd_4266.xyz
C          1.83261       -1.40290        0.79820
C          0.96858       -0.86911       -0.32349
O          1.52197        0.30899       -0.96456
C          0.27130        1.00576       -0.88039
C          0.17331        1.95318        0.33307
C         -0.43185        0.79812        1.18875
C         -0.37778       -0.15553       -0.02947
C         -1.63369       -0.83825       -0.45346
O         -2.71037       -0.69422        0.07258
H          1.35951       -2.27374        1.26446
H          2.80197       -1.71509        0.39734
H          2.01315       -0.64620        1.56569
H          0.81778       -1.65659       -1.07906
H         -0.09489        1.33895       -1.85554
H          1.14492        2.33789        0.64923
H         -0.51211        2.79065        0.18049
H          0.14424        0.48597        2.06147
H         -1.46389        0.97128        1.49723
H         -1.51841       -1.49898       -1.34471
