19
dsC7O2H10nsd_5559.xyz
C          2.93769       -0.62364        0.02371
C          1.79712        0.31391       -0.37885
C          0.48249        0.03285        0.37167
C         -0.24801       -1.22361       -0.06544
C         -1.54126       -1.57058        0.65014
C         -1.57083       -0.75598       -0.60721
O         -1.67434        0.64550       -0.44838
C         -0.53455        1.15729        0.10824
O         -0.40648        2.32408        0.33498
H          3.15829       -0.53774        1.09328
H          2.69762       -1.67232       -0.18156
H          3.85191       -0.38161       -0.52640
H          2.07703        1.35280       -0.17640
H          1.61643        0.24417       -1.45900
H          0.69056        0.03941        1.44877
H          0.30670       -2.01507       -0.55427
H         -1.88264       -2.59817        0.58986
H         -1.77520       -1.06617        1.58283
H         -2.03001       -1.10339       -1.52348
