19
dsC7O2H10nsd_2387.xyz
C         -1.35354        1.74576        0.61389
C         -0.76209        0.50477       -0.01765
C         -1.62350       -0.34282       -0.98699
C         -1.11582       -1.63683       -0.28838
C         -0.46638       -0.77310        0.83545
C          1.04604       -0.81948        0.96855
C          1.54621        0.12853       -0.12350
O          2.66647        0.27636       -0.51536
O          0.50083        0.84278       -0.62796
H         -1.51981        2.52027       -0.14147
H         -2.31281        1.51336        1.08615
H         -0.68159        2.15359        1.37604
H         -2.69325       -0.16950       -0.84481
H         -1.38108       -0.21793       -2.04376
H         -1.88597       -2.33708        0.03974
H         -0.37989       -2.19088       -0.87733
H         -0.99928       -0.81496        1.78617
H          1.40285       -0.44217        1.93314
H          1.48703       -1.80872        0.82442
