19
dsC7O2H10nsd_2094.xyz
C         -2.43434       -0.42871       -0.07955
C         -0.93518       -0.47375       -0.11312
C          0.02328       -1.25286       -1.05327
C          0.97876       -0.50507       -0.12005
O          2.34991       -0.56252       -0.17315
C          0.01982       -0.64065        1.11051
O          0.04650        0.77996        1.43892
C          0.03805        0.75802       -0.02967
C          0.04658        2.04959       -0.78019
H         -2.77096        0.22503        0.73191
H         -2.84299       -0.04444       -1.02056
H         -2.86016       -1.42421        0.08556
H          0.01071       -2.34313       -0.96587
H          0.02994       -0.95198       -2.10502
H          2.69349       -0.01687        0.54545
H         -0.00577       -1.36821        1.92212
H          0.94884        2.62503       -0.54906
H          0.02891        1.86131       -1.85843
H         -0.82515        2.65849       -0.52024
