19
dsC7O2H10nsd_4183.xyz
C         -2.32201        0.78600       -0.54271
C         -1.08760        0.09324       -0.02034
C         -1.18947       -0.89643        1.13515
C         -0.72535       -1.37759       -0.20497
C          0.79549       -1.52740       -0.35116
C          1.33558       -0.09011       -0.47682
O          2.54665        0.14192        0.19261
C          0.21165        0.83701       -0.00112
O          0.40270        1.99036        0.30967
H         -2.21032        1.06388       -1.59620
H         -3.20099        0.14057       -0.45531
H         -2.51143        1.70196        0.02561
H         -0.47104       -0.84897        1.94835
H         -2.20197       -1.12854        1.44903
H         -1.37576       -2.02477       -0.78205
H          1.24123       -2.01019        0.52391
H          1.05507       -2.12717       -1.22569
H          1.43001        0.14393       -1.55563
H          2.54062        1.08272        0.42159
