19
dsC7O2H10nsd_5725.xyz
C         -3.02059       -0.75858       -0.00589
O         -1.92884       -0.17072       -0.67976
C         -1.07210        0.54238        0.17066
C         -0.07577       -0.34622        0.99529
C          1.08650        0.23433        0.18852
C          1.09836        1.74768        0.27277
C          0.09672        1.12158       -0.62689
C          2.21945       -0.52260       -0.34918
O          2.45293       -1.68146       -0.09625
H         -3.63502       -0.00022        0.50394
H         -3.63060       -1.26270       -0.75853
H         -2.69621       -1.49888        0.74004
H         -1.64294        1.28052        0.75795
H         -0.03676       -0.19982        2.07866
H         -0.22507       -1.40410        0.77245
H          0.79674        2.21574        1.20688
H          1.93378        2.23439       -0.22172
H          0.07993        1.28040       -1.69786
H          2.86789        0.06062       -1.04545
