19
dsC7O2H10nsd_5166.xyz
O          2.82665       -0.37519       -0.09249
C          1.95572        0.70974       -0.30769
C          0.50770        0.34642       -0.02090
O          0.38542       -0.60617        1.07952
C          0.02438       -1.02431       -0.24879
C         -1.44374       -1.24854       -0.52420
C         -2.34339       -0.19429        0.15277
C         -1.79741        1.20244        0.01473
C         -0.48812        1.44788       -0.05270
H          2.52724       -0.77999        0.73354
H          2.22710        1.57840        0.31754
H          2.06110        1.01822       -1.35445
H          0.71915       -1.73936       -0.68738
H         -1.57823       -1.21192       -1.61337
H         -1.73963       -2.25403       -0.20541
H         -3.35632       -0.25252       -0.25869
H         -2.43219       -0.43390        1.21991
H         -2.50579        2.02630        0.00357
H         -0.10983        2.46359       -0.13081
