19
dsC7O2H10nsd_2375.xyz
O          1.28012        1.88471       -0.20783
C          0.95198        0.54529       -0.15909
C          1.86938       -0.59348       -0.60501
O          1.42754       -1.41965        0.50895
C          0.63454       -0.34522        1.02227
C         -0.44694        0.02278        0.04650
C         -1.64440        0.89448        0.44959
C         -2.57189       -0.24367       -0.07492
C         -1.34580       -0.92483       -0.75649
H          0.78024        2.29691       -0.92122
H          1.68143       -1.06608       -1.57636
H          2.93132       -0.34306       -0.50351
H          0.59921       -0.19265        2.09538
H         -1.73213        1.16690        1.50476
H         -1.72257        1.81192       -0.14440
H         -2.98195       -0.84797        0.73733
H         -3.39134        0.06004       -0.72938
H         -1.19934       -1.99113       -0.57221
H         -1.30731       -0.74748       -1.83651
