19
dsC7O2H10nsd_3391.xyz
C          2.51573       -0.10886       -0.27987
C          1.04065       -0.11866       -0.00039
C          0.13196       -1.24359       -0.46175
C         -1.27988       -0.93267       -0.92586
O         -1.85793       -0.13094        0.12108
C         -0.81917        0.17078        1.06040
C          0.22923       -0.95168        1.00714
C          0.20834        1.11957        0.37642
O         -0.28538        1.98338       -0.61265
H          2.72672        0.35701       -1.24905
H          3.05755        0.45796        0.48585
H          2.92854       -1.12311       -0.30155
H          0.62757       -2.12263       -0.85883
H         -1.30695       -0.38007       -1.87315
H         -1.87627       -1.84636       -1.03952
H         -1.28090        0.47300        1.99869
H          0.53463       -1.63686        1.78580
H          0.76179        1.70974        1.11742
H         -1.18746        1.68240       -0.78956
