19
dsC7O2H10nsd_1647.xyz
C         -1.58194        1.58503       -0.31833
C         -1.07868        0.16843       -0.11687
C         -2.05542       -0.97991       -0.16900
C         -1.43705       -0.57126        1.14823
C          0.29385       -0.05382       -0.71741
O          0.84155       -1.38266       -0.51937
C          2.00777       -0.91508        0.19083
C          1.49544        0.52310        0.05302
O          1.85130        1.60487        0.40712
H         -1.67856        1.82332       -1.38445
H         -2.56563        1.71570        0.14185
H         -0.89767        2.31482        0.12702
H         -3.09890       -0.74358       -0.34896
H         -1.71612       -1.91358       -0.60254
H         -2.05433       -0.05569        1.87569
H         -0.70464       -1.24831        1.57320
H          0.29365        0.22019       -1.78355
H          2.07088       -1.30104        1.21590
H          2.94473       -1.12848       -0.33899
