19
dsC7O2H10nsd_0926.xyz
O         -3.85540       -0.24977       -0.34523
C         -2.77748       -0.43696        0.15777
C         -1.72520        0.62862        0.37130
C         -0.41261        0.28901       -0.33917
C          0.81122        1.22442       -0.08767
C          1.67249       -0.03674        0.00454
C          2.92874       -0.34205       -0.68097
O          2.86906       -0.15612        0.74289
C          0.43550       -0.91987        0.17661
H         -2.47830       -1.45551        0.49971
H         -2.12721        1.58586        0.02518
H         -1.53560        0.70498        1.45205
H         -0.59305        0.18975       -1.41402
H          1.05609        1.96179       -0.85536
H          0.74508        1.72794        0.88252
H          3.13548       -1.36027       -1.00864
H          3.45204        0.43971       -1.23045
H          0.39065       -1.85706       -0.38262
H          0.24964       -1.12861        1.23580
