19
dsC7O2H10nsd_5663.xyz
C          3.13532       -0.73553       -0.14645
O          2.02444       -0.01599       -0.63638
C          0.97682        0.08909        0.27873
C          0.03960       -1.12769        0.53181
C         -1.16195       -0.12859        0.55673
C         -2.42795       -0.52284       -0.01781
C         -3.46936       -0.85254       -0.52132
C         -0.24571        0.87999       -0.22529
O         -0.35752        2.25496       -0.01461
H          2.87846       -1.77850        0.09119
H          3.89620       -0.73028       -0.93012
H          3.55358       -0.26782        0.75879
H          1.33383        0.50259        1.23951
H         -0.00394       -1.76985       -0.35054
H          0.19757       -1.73388        1.42417
H         -1.30869        0.24499        1.57785
H         -4.39130       -1.14063       -0.96195
H         -0.35727        0.71633       -1.30025
H         -0.21443        2.43395        0.92086
