19
dsC7O2H10nsd_0338.xyz
C         -0.14037       -1.32468        1.04238
C         -0.67798       -1.35431       -0.36644
O         -1.70466       -0.45744       -0.72868
C         -1.88727        0.71558        0.07949
C         -0.58503        1.52980        0.43829
C          0.52922        0.84609       -0.31622
O          1.93821        0.97179        0.01300
C          2.10759       -0.45857       -0.23267
C          0.59937       -0.64043       -0.08207
H         -0.64514       -0.77263        1.82713
H          0.31012       -2.25376        1.38112
H         -0.78954       -2.28842       -0.90641
H         -2.56061        1.33259       -0.51857
H         -2.41868        0.44679        1.00151
H         -0.70670        2.57996        0.15840
H         -0.38937        1.49168        1.51382
H          0.40319        1.04390       -1.39335
H          2.51420       -0.64198       -1.23691
H          2.74085       -0.93382        0.52207
