19
dsC7O2H10nsd_4835.xyz
C          2.79056       -0.28131       -0.45052
O          1.79463       -0.38718        0.54869
C          0.54120        0.17602        0.21541
C          0.60028        1.68217        0.07124
C         -0.50119       -0.65519        0.91993
C         -1.98856       -0.31085        0.60718
O         -2.08441        0.80263       -0.29398
C         -1.76767       -0.49248       -0.82473
C         -0.26707       -0.83639       -0.58822
H          3.12179        0.75416       -0.60409
H          3.64294       -0.87072       -0.10393
H          2.44736       -0.68365       -1.41436
H          1.12377        2.09402        0.94088
H          1.16069        1.96564       -0.82598
H         -0.39148        2.11664        0.00220
H         -0.20831       -1.33247        1.71120
H         -2.84309       -0.51288        1.24177
H         -2.40292       -0.87415       -1.61529
H          0.22204       -1.67203       -1.07176
