19
dsC7O2H10nsd_0414.xyz
C         -1.67621       -1.09163       -0.59115
C         -1.73056       -0.72115        0.87008
C         -0.76014       -0.03316       -0.06004
C         -0.88701        1.44419       -0.39399
O          0.21588        2.05691        0.26656
C          1.32057        1.17349        0.14905
C          0.73320       -0.23986        0.04798
C          1.40032       -1.44477        0.54266
O          1.38529       -1.13979       -0.85695
H         -1.22458       -2.03670       -0.87429
H         -2.49479       -0.78016       -1.23208
H         -2.58134       -0.14707        1.22344
H         -1.33586       -1.42425        1.59573
H         -0.82676        1.60728       -1.48346
H         -1.80446        1.90791       -0.02200
H          1.90669        1.37290       -0.76163
H          1.96506        1.31985        1.02042
H          2.37065       -1.36313        1.03251
H          0.81497       -2.31618        0.83683
