19
dsC7O2H10nsd_2584.xyz
C         -0.55832        2.26048        0.12234
C         -0.94285        0.81744        0.06963
C         -2.10798        0.26538       -0.25880
C         -2.03764       -1.22793       -0.13570
O         -0.69444       -1.50308        0.26558
C          0.02951       -0.28587        0.43188
C          1.26402       -0.32057       -0.45056
C          2.56392       -0.75743        0.06584
O          2.28191        0.63162       -0.13157
H         -0.25823        2.54811        1.13752
H          0.30428        2.46629       -0.52054
H         -1.38586        2.90450       -0.18554
H         -3.00506        0.79261       -0.56030
H         -2.73931       -1.62189        0.61691
H         -2.25359       -1.74927       -1.08100
H          0.36919       -0.18674        1.47739
H          1.05858       -0.43312       -1.51604
H          2.64653       -1.07349        1.10485
H          3.29982       -1.18439       -0.61314
