19
dsC7O2H10nsd_4600.xyz
C         -3.94068       -0.13734        0.64768
C         -3.05623       -0.06876       -0.61078
C         -1.62948       -0.08483       -0.30996
C         -0.45838       -0.12055       -0.02863
C          0.96596       -0.07157        0.27026
O          1.61513       -1.19691       -0.30115
C          2.92806       -1.39109        0.19609
C          1.53762        1.21921       -0.35063
O          1.94336        2.15699        0.27963
H         -3.74539       -1.05417        1.21005
H         -3.74466        0.71229        1.30698
H         -4.99815       -0.12122        0.36865
H         -3.28930       -0.91155       -1.27377
H         -3.29424        0.83805       -1.18128
H          1.13674       -0.02347        1.35699
H          3.32369       -2.27756       -0.30342
H          3.58889       -0.53859       -0.01676
H          2.92398       -1.56137        1.28279
H          1.54928        1.18659       -1.46221
