19
dsC7O2H10nsd_3224.xyz
C          2.97956       -0.81311       -0.28668
C          1.52248       -0.41696       -0.38160
C          1.10917        0.95666        0.08115
O         -0.05499        1.54161       -0.45649
C         -1.20204        0.91131        0.05834
C         -1.54625       -0.47194       -0.40955
O         -2.90518       -0.78590       -0.31810
C         -0.78384       -0.28073        0.89449
C          0.72743       -0.25062        0.90628
H          3.09119       -1.89661       -0.16969
H          3.53033       -0.51173       -1.18425
H          3.46338       -0.33856        0.57403
H          1.00041       -0.81168       -1.24674
H          1.85760        1.68868        0.36930
H         -2.00628        1.59075        0.32022
H         -1.03057       -0.87388       -1.27936
H         -2.98118       -1.69915       -0.02139
H         -1.30201       -0.52446        1.81445
H          1.21950       -0.47667        1.84548
