19
dsC7O2H10nsd_2065.xyz
C          2.40364        0.55163        0.30011
C          1.02007        0.09156       -0.09032
O          0.98666       -1.09164       -0.92564
C          0.47495       -1.18236        0.40060
C         -1.01761       -1.37774        0.56830
O         -1.81239       -0.57741       -0.27907
C         -1.41700        0.75091       -0.45384
C         -0.90979        1.64112        0.64869
C          0.02888        1.15091       -0.45572
H          2.87316        1.09352       -0.52836
H          2.35923        1.22851        1.15966
H          3.03836       -0.30140        0.55325
H          1.07670       -1.78077        1.08905
H         -1.28995       -2.41264        0.33515
H         -1.26473       -1.20457        1.62990
H         -2.06597        1.20396       -1.19480
H         -1.22186        2.67969        0.64966
H         -0.75970        1.22103        1.63724
H          0.36174        1.86897       -1.20002
