19
dsC7O2H10nsd_5630.xyz
O          2.74901       -0.88526        0.10366
C          2.10207        0.37449        0.19943
C          0.74262        0.25700       -0.49180
C         -0.00857        1.57162       -0.51792
C         -1.13204        1.54602        0.20133
C         -1.39517        0.19530        0.80590
C         -2.29645       -0.74245       -0.03428
O         -1.14724       -1.35749       -0.64841
C         -0.23582       -0.67471        0.24468
H          3.57085       -0.84282        0.60093
H          1.95534        0.67256        1.25052
H          2.69358        1.16831       -0.28414
H          0.91531       -0.14080       -1.49996
H          0.35954        2.43575       -1.06180
H         -1.81282        2.38234        0.32139
H         -1.59073        0.20988        1.88072
H         -2.87577       -1.46250        0.55978
H         -2.95590       -0.26668       -0.76964
H          0.26655       -1.37772        0.91605
