19
dsC7O2H10nsd_2271.xyz
C         -2.27320       -0.60419        0.06628
C         -0.84279       -0.12726        0.01108
C         -0.09866        0.20180        1.31713
C          1.15265        0.72274        0.58133
C          0.47388        1.74806       -0.35911
O         -0.78556        1.13893       -0.69961
C          1.48461       -0.45523       -0.34337
O          1.07798       -1.75128        0.11334
C          0.18205       -1.00873       -0.72736
H         -2.33155       -1.56726        0.58213
H         -2.90110        0.11811        0.59532
H         -2.67564       -0.72963       -0.94371
H         -0.61543        0.97946        1.88366
H          0.09525       -0.66608        1.94389
H          1.96782        1.12301        1.18424
H          0.29285        2.70622        0.14372
H          1.05115        1.93873       -1.27245
H          2.34756       -0.43170       -1.00222
H         -0.04156       -1.43520       -1.70045
