19
dsC7O2H10nsd_5158.xyz
O          2.85266        0.39581        0.22523
C          1.94024       -0.26765       -0.63458
C          0.51363       -0.08879       -0.16054
C         -0.01459        1.33273       -0.13126
C         -1.49992        1.43116        0.07276
C         -2.33861        0.39962        0.02773
C         -1.91746       -1.02043       -0.23124
C         -0.42053       -1.22547       -0.19123
O          0.23710       -0.86060        1.02931
H          2.71624        0.02389        1.10458
H          2.07745        0.17489       -1.62719
H          2.16482       -1.34231       -0.70669
H          0.52055        1.88948        0.64840
H          0.26215        1.82672       -1.07440
H         -1.88953        2.42894        0.25858
H         -3.40223        0.56493        0.17850
H         -2.38708       -1.69540        0.49804
H         -2.28727       -1.35065       -1.21344
H         -0.06974       -2.16928       -0.61258
