19
dsC7O2H10nsd_5352.xyz
C          2.67906       -0.99762       -0.30653
C          1.40009       -0.27526        0.01563
C          0.04418       -0.95849       -0.17866
C         -0.91899        0.19619       -0.39807
C         -2.39725       -0.02224       -0.50429
O         -2.92998       -0.64891        0.66083
C         -0.27838        1.37232       -0.40452
C          1.17470        1.17690       -0.13292
O          1.42759        0.58120        1.16579
H          2.68047       -1.34680       -1.34442
H          3.53864       -0.34002       -0.15510
H          2.80297       -1.87245        0.34162
H          0.05718       -1.63624       -1.04318
H         -0.23740       -1.56152        0.69127
H         -2.90410        0.93042       -0.71942
H         -2.62840       -0.71081       -1.32626
H         -2.70231       -0.08984        1.41184
H         -0.74250        2.34217       -0.54186
H          1.93412        1.87590       -0.47136
