19
dsC7O2H10nsd_1298.xyz
C         -2.30425       -1.35938       -0.08204
C         -1.41808       -0.13739       -0.28769
O         -2.10563        0.98246        0.23779
C         -0.05316       -0.27053        0.40966
C          1.03075       -1.13870       -0.25890
C          2.30366       -0.99750        0.48563
C          1.94246        0.10989       -0.49923
C          0.83608        0.94356        0.04175
O          0.56238        2.11580       -0.04394
H         -1.83744       -2.26016       -0.49209
H         -2.49268       -1.51480        0.98479
H         -3.26599       -1.20826       -0.57976
H         -1.23782       -0.00766       -1.37014
H         -1.50406        1.73861        0.17269
H         -0.20922       -0.46161        1.47674
H          0.84445       -1.92473       -0.97859
H          2.29456       -0.79944        1.55383
H          3.13591       -1.60971        0.15360
H          2.59345        0.36187       -1.32687
