19
dsC7O2H10nsd_1487.xyz
C          1.21273       -1.24109        1.14963
C          0.80064       -0.43420       -0.06714
O          1.80366       -0.46570       -1.08287
C         -0.56605       -0.67594       -0.77970
C         -1.76907       -1.07966        0.10703
C         -2.09329        0.41914        0.37643
C         -0.94800        0.84897       -0.60201
C          0.38094        1.05625        0.11485
O          0.96859        2.00328        0.55788
H          0.44254       -1.23827        1.92613
H          1.42327       -2.27669        0.86461
H          2.12067       -0.81193        1.58758
H          2.54598        0.06444       -0.76745
H         -0.45634       -1.15053       -1.75315
H         -2.55305       -1.57761       -0.46806
H         -1.55062       -1.70129        0.97866
H         -3.08232        0.73071        0.03614
H         -1.96881        0.76169        1.40684
H         -1.20671        1.53803       -1.40602
