19
dsC7O2H10nsd_0339.xyz
C          0.27701        1.75249        0.77811
C          0.68115        1.13481       -0.54103
O          1.77380        0.26341       -0.66865
C          1.71480       -0.88187        0.15544
O          0.50859       -1.58151        0.03918
C         -0.56911       -0.82013        0.56545
C         -1.89624       -0.97851       -0.21643
C         -1.99213        0.57453       -0.35210
C         -0.55102        0.65647        0.15504
H          0.83995        1.51830        1.67674
H         -0.10407        2.76852        0.74253
H          0.59211        1.74382       -1.43504
H          2.51050       -1.54231       -0.19343
H          1.89784       -0.60400        1.20948
H         -0.65895       -0.99514        1.64765
H         -1.71168       -1.47586       -1.17014
H         -2.71289       -1.48212        0.30329
H         -2.18694        0.96685       -1.35366
H         -2.71171        1.01998        0.34143
