19
dsC7O2H10nsd_3377.xyz
O          1.08176        2.07629       -0.07619
C          0.23933        1.01021       -0.44589
C         -1.08281        0.81999        0.35684
O         -2.14102        0.27907       -0.45534
C         -1.84245       -1.07319       -0.03074
C         -0.63584       -0.60560        0.80404
C          0.66425       -0.40268        0.01950
C          2.04940       -0.73769        0.50548
C          1.48553       -1.41830       -0.71738
H          1.36460        1.93000        0.83330
H          0.05199        1.11955       -1.51746
H         -1.40253        1.63813        1.00913
H         -2.66802       -1.49108        0.55895
H         -1.62719       -1.73929       -0.87501
H         -0.56551       -0.94649        1.83714
H          2.82373        0.00878        0.35851
H          2.14535       -1.31719        1.41831
H          1.88663       -1.13902       -1.68635
H          1.20060       -2.46261       -0.63532
