19
dsC7O2H10nsd_5680.xyz
C         -1.23464        2.13210       -0.62618
O         -1.40652        1.28884        0.50089
C         -1.57057       -0.04004        0.15702
C         -1.20457       -1.05841        1.18798
C         -0.36408       -0.93064       -0.08599
O         -0.57795       -1.89163       -1.08869
C          0.96732       -0.39628        0.00718
C          2.10238        0.00630        0.06213
C          3.46696        0.50767        0.12934
H         -0.33540        1.86195       -1.19363
H         -2.10586        2.08540       -1.29649
H         -1.13223        3.15140       -0.24742
H         -2.41983       -0.25832       -0.49331
H         -0.76560       -0.68752        2.10665
H         -1.82682       -1.94192        1.27333
H         -0.03165       -2.65763       -0.87787
H          4.10733       -0.14155        0.73705
H          3.91445        0.57742       -0.86840
H          3.49458        1.50885        0.57365
