19
dsC7O2H10nsd_0879.xyz
O         -3.18796       -0.04115       -0.13810
C         -2.08471        0.14789        0.30471
C         -0.79187       -0.23170       -0.39177
C         -0.07913       -1.37282        0.36917
C          1.36123       -1.50221       -0.12245
O          2.11506       -0.34059        0.19212
C          1.60051        0.85029       -0.33259
C          0.77982        1.70662        0.59239
C          0.11481        0.98290       -0.56586
H         -1.93739        0.63000        1.29911
H         -1.06619       -0.60138       -1.38589
H         -0.06385       -1.17729        1.44866
H         -0.62412       -2.30983        0.21579
H          1.87414       -2.32876        0.37671
H          1.37505       -1.69693       -1.20697
H          2.27983        1.32948       -1.03396
H          0.65194        1.31627        1.59573
H          0.86266        2.78610        0.53349
H         -0.17280        1.62051       -1.39639
