19
dsC7O2H10nsd_5478.xyz
C         -3.04622        0.78551        0.31314
O         -2.30987       -0.28942       -0.23621
C         -0.99823       -0.33455        0.22751
C         -0.07409       -1.07704       -0.68637
C          1.36580       -1.16092       -0.10272
O          1.40740       -0.49628        1.17490
C          1.46646        0.29741       -0.02781
C          2.58650        1.26830       -0.19228
C          0.01422        0.44769       -0.59057
H         -2.60898        1.75755        0.04312
H         -4.05849        0.72169       -0.09237
H         -3.09565        0.72124        1.41036
H         -0.89314       -0.40364        1.30751
H         -0.44566       -1.67446       -1.50751
H          2.10402       -1.93372       -0.28449
H          2.69052        1.56373       -1.24150
H          2.40419        2.17519        0.39582
H          3.52652        0.82325        0.14436
H         -0.29028        1.17630       -1.33026
