19
dsC7O2H10nsd_3822.xyz
O         -2.48659       -0.70949        0.11539
C         -1.57339        0.23522       -0.39345
C         -0.86870        1.20402        0.60355
C          0.51511        0.75823        0.09257
O          1.33647        1.83235       -0.24984
C          1.09707       -0.42286        0.84901
C          1.88468       -1.30790       -0.08189
C          0.38783       -1.40436       -0.10235
C         -0.20129       -0.26948       -0.92153
H         -2.06390       -1.15954        0.85437
H         -2.12272        0.77785       -1.16629
H         -1.06110        2.25777        0.39188
H         -1.06509        1.01876        1.66438
H          2.20467        1.48541       -0.48226
H          1.21460       -0.47966        1.92643
H          2.41548       -0.89557       -0.93839
H          2.40382       -2.13112        0.39791
H         -0.12108       -2.32587        0.15543
H         -0.05155       -0.28819       -2.00341
