19
dsC7O2H10nsd_0521.xyz
C         -1.85187        0.49939       -0.72038
C         -1.90612       -0.62665        0.39268
C         -0.37062       -0.47722        0.44004
C          0.11392        0.76378        1.22839
O          0.99355        1.43409        0.29971
C          1.03826        0.57309       -0.83462
C          1.69586       -0.77806       -0.36167
O          0.68910       -1.42704        0.48681
C         -0.38260        0.03339       -0.98767
H         -2.54198        0.38810       -1.55703
H         -1.94419        1.50647       -0.31309
H         -2.47220       -0.43539        1.30704
H         -2.21588       -1.58186       -0.03694
H         -0.67829        1.45437        1.53574
H          0.66845        0.43894        2.11544
H          1.56645        1.07476       -1.64573
H          1.95415       -1.44818       -1.19001
H          2.59102       -0.56709        0.23069
H         -0.40977       -0.81288       -1.67885
