19
dsC7O2H10nsd_2800.xyz
O         -2.87592        0.00950       -0.42745
C         -1.50259        0.25744       -0.31513
C         -0.85169        0.05507        1.02186
C         -0.57942       -0.91805       -0.15678
C          0.91776       -0.51614       -0.13999
O          1.83406       -1.56827       -0.08103
C          1.40311        0.66356       -1.02234
C          1.10548        1.65860        0.14975
C          0.63738        0.46918        1.04262
H         -3.10783       -0.71623        0.16186
H         -1.24986        1.09529       -0.95656
H         -1.47007       -0.08166        1.90382
H         -0.93893       -1.92599       -0.34606
H          1.50213       -2.22400        0.54271
H          2.46805        0.56621       -1.24279
H          0.86502        0.82441       -1.95939
H          2.00027        2.15491        0.53062
H          0.35252        2.42392       -0.05123
H          1.13338        0.33528        2.00485
