19
dsC7O2H10nsd_3922.xyz
C         -2.60016       -0.02052       -0.13851
C         -1.20449       -0.55547       -0.34032
O         -0.63665       -1.10796        0.93349
C          0.59639       -0.51526        0.53216
C          1.42120       -1.13098       -0.64609
C          1.52814        0.39345       -0.77870
C          1.79714        0.43452        0.81444
C         -0.00503        0.49898       -0.40620
O         -0.39724        1.73764        0.14390
H         -2.99518        0.36234       -1.08622
H         -3.25635       -0.82709        0.20285
H         -2.60306        0.78262        0.59812
H         -1.18530       -1.33494       -1.10564
H          2.33355       -1.65660       -0.36065
H          0.88100       -1.66240       -1.42927
H          2.09785        0.95397       -1.52282
H          2.74187       -0.00764        1.14052
H          1.57152        1.37399        1.31172
H         -0.51393        2.34996       -0.58834
