19
dsC7O2H10nsd_2348.xyz
O          2.20545       -1.15683       -0.36129
C          1.12837       -0.38539        0.06083
C          1.54552        1.01015        0.55412
O          0.57755        1.66870       -0.29523
C          0.10347        0.41492       -0.82356
C         -1.02877       -0.20192        0.00176
C         -2.37497       -0.62440       -0.51480
C         -2.25726        0.51755        0.46613
C         -0.04418       -1.04458        0.83581
H          1.87855       -2.01904       -0.63829
H          1.39034        1.22505        1.61832
H          2.57246        1.26642        0.26960
H          0.03152        0.41519       -1.91475
H         -2.61872       -0.39251       -1.54704
H         -2.78465       -1.56560       -0.16065
H         -2.41048        1.52989        0.10776
H         -2.58906        0.34859        1.48563
H         -0.04831       -0.90150        1.92087
H         -0.11872       -2.11940        0.62898
