19
dsC7O2H10nsd_5097.xyz
C          3.05643       -0.47424       -0.18480
O          1.97226       -0.24467        0.70134
C          0.80152        0.07914        0.05757
C          0.50648        1.45870       -0.45396
C         -0.36051        0.87049        0.64931
C         -1.31306       -0.13203        0.04713
C         -2.60075       -0.60350        0.54885
O         -2.51108        0.20616       -0.63450
C         -0.15876       -0.95362       -0.56657
H          3.26439        0.41121       -0.80106
H          3.92918       -0.69789        0.43225
H          2.86259       -1.32698       -0.85057
H          1.19645        2.21991       -0.10391
H          0.09615        1.63115       -1.44553
H         -0.45187        1.34686        1.61737
H         -2.89914       -1.63905        0.38703
H         -3.05920       -0.11885        1.41055
H         -0.06144       -1.94180       -0.10944
H         -0.15461       -1.04610       -1.65659
