19
dsC7O2H10nsd_1330.xyz
C         -1.16954        1.89220        0.07074
C         -0.93296        0.45159       -0.41652
C         -1.84685       -0.50620        0.33602
O         -2.67585       -1.20733       -0.18355
C          0.50489        0.03309       -0.21624
C          1.17909       -1.35059       -0.43365
C          2.15492       -0.41991        0.31743
C          1.82177        0.72728       -0.66408
O          1.03504        0.02442        1.18044
H         -0.53990        2.59123       -0.48663
H         -2.21330        2.18595       -0.07101
H         -0.91881        1.98607        1.13115
H         -1.17392        0.35696       -1.48112
H         -1.69408       -0.50589        1.43759
H          0.76694       -2.16842        0.15862
H          1.42636       -1.64493       -1.45656
H          3.09852       -0.65556        0.80779
H          1.97786        1.73176       -0.26960
H          2.12900        0.62134       -1.70755
