19
dsC7O2H10nsd_3288.xyz
O         -3.05299        0.00000       -0.18048
C         -1.66957        0.00000       -0.39016
C         -0.71042        0.76793        0.47179
C          0.44423        1.55501       -0.13337
C          1.68660        0.73513       -0.40450
O          2.22037        0.00000        0.70112
C          1.68660       -0.73513       -0.40450
C          0.44423       -1.55501       -0.13337
C         -0.71042       -0.76793        0.47179
H         -3.21875       -0.00001        0.76753
H         -1.47334        0.00000       -1.46040
H         -1.14754        1.21359        1.36141
H          0.13807        2.03534       -1.07216
H          0.72750        2.36832        0.54438
H          2.44474        1.24366       -1.00282
H          2.44474       -1.24366       -1.00282
H          0.13807       -2.03534       -1.07217
H          0.72750       -2.36832        0.54438
H         -1.14754       -1.21359        1.36141
