19
dsC7O2H10nsd_3411.xyz
C          2.91281        0.34049        0.26144
C          1.45484       -0.01304        0.43941
C          0.72388       -0.87731       -0.53215
O         -0.21859       -1.76889       -0.01138
C         -1.56891       -1.34327       -0.12230
C         -1.77670       -0.01452        0.61777
C         -0.91509        1.06782       -0.02063
O         -1.31125        2.20004       -0.19238
C          0.41817        0.61365       -0.50753
H          3.14319        1.31255        0.70937
H          3.55494       -0.41086        0.73336
H          3.18074        0.39129       -0.79874
H          1.12439       -0.13782        1.46672
H          1.25649       -1.26395       -1.39935
H         -1.86148       -1.24129       -1.17845
H         -2.17199       -2.14067        0.31967
H         -2.81856        0.31554        0.59240
H         -1.48844       -0.15169        1.66744
H          0.82543        1.23474       -1.29846
