19
dsC7O2H10nsd_1008.xyz
C          4.21685       -1.00729        0.14773
C          2.90684       -0.40756       -0.05940
C          1.82845        0.09473       -0.24960
C          0.50770        0.70178       -0.41902
O          0.39958        1.94282        0.27961
C         -0.61216       -0.27635       -0.00286
C         -2.00886        0.32708       -0.21481
C         -3.08939       -0.51412        0.41922
O         -4.05278       -0.95605       -0.15170
H          4.18018       -1.80039        0.90231
H          4.59858       -1.44741       -0.77988
H          4.94444       -0.26028        0.48316
H          0.36059        0.96554       -1.47433
H          0.80660        1.82008        1.14443
H         -0.50176       -1.20445       -0.57412
H         -0.46658       -0.53573        1.05395
H         -2.02359        1.31584        0.26341
H         -2.23901        0.45500       -1.27669
H         -2.93044       -0.71196        1.50689
