19
dsC7O2H10nsd_3405.xyz
C          1.30946        1.54956        0.83435
C          0.43992        0.60486        0.02523
C         -0.71767        1.22809       -0.66961
C         -1.94597        0.73737       -0.51914
C         -2.18501       -0.50392        0.30279
O         -1.06892       -1.38734        0.31500
C          0.16809       -0.78429        0.55980
C          1.09680       -0.60776       -0.61970
O          2.47566       -0.74730       -0.45983
H          1.69920        2.35244        0.19810
H          0.73381        2.01152        1.64316
H          2.16546        1.02477        1.26198
H         -0.52947        2.11286       -1.27323
H         -2.80924        1.20744       -0.98082
H         -2.46930       -0.22855        1.33313
H         -3.01381       -1.08714       -0.11124
H          0.61893       -1.05486        1.51500
H          0.69135       -0.92225       -1.58140
H          2.66549       -1.68252       -0.32836
