19
dsC7O2H10nsd_0749.xyz
O         -2.42184       -0.32646       -0.63657
C         -1.47331       -0.11518        0.08197
C         -1.04284        1.30119        0.42639
C          0.23868        1.73661       -0.31196
C          1.54268        1.15771        0.24243
C          1.74811       -0.33600        0.09394
O          1.14852       -1.00800       -1.02296
C          0.76077       -1.40753        0.29763
C         -0.69615       -1.27770        0.69574
H         -1.87076        1.95571        0.14312
H         -0.88745        1.39025        1.50983
H          0.14910        1.48380       -1.37324
H          0.30577        2.82777       -0.25134
H          2.37974        1.65074       -0.26754
H          1.64920        1.41303        1.30633
H          2.78640       -0.63398        0.26189
H          1.17706       -2.37342        0.59391
H         -1.22291       -2.19104        0.40494
H         -0.74728       -1.20169        1.79141
