19
dsC7O2H10nsd_0574.xyz
C          2.30666        0.07286        0.26893
C          1.27482        1.21694        0.35837
C         -0.00752        0.49732        0.03685
O         -1.13917        1.24192       -0.29709
C         -2.22996        0.32361       -0.38751
C         -1.90708       -0.85752        0.56252
C         -0.38673       -0.83342        0.65798
C          0.37465       -0.78195       -0.65931
O          1.76942       -0.92852       -0.60807
H          3.27113        0.38977       -0.13648
H          2.48325       -0.36322        1.26158
H          1.28415        1.69860        1.34024
H          1.44950        1.98509       -0.40257
H         -3.14455        0.86074       -0.12435
H         -2.32819       -0.03215       -1.42264
H         -2.33192       -0.68574        1.55668
H         -2.31642       -1.79843        0.18213
H          0.09283       -1.23394        1.54480
H         -0.05079       -1.15506       -1.58512
