19
dsC7O2H10nsd_0080.xyz
C         -3.50878       -0.10523       -0.32493
C         -2.36496       -0.05292        0.04189
C         -0.96386       -0.00182        0.44804
C         -0.32867        1.35622        0.06652
C          1.18715        1.42538        0.26463
O          1.84991        0.57276       -0.66588
C          2.13952       -0.71161       -0.19068
O          1.07798       -1.31868        0.49810
C         -0.19341       -1.21709       -0.12522
H         -4.52366       -0.14844       -0.63421
H         -0.91079       -0.11228        1.53992
H         -0.53763        1.56509       -0.98844
H         -0.80936        2.14971        0.64982
H          1.53492        2.44151        0.05207
H          1.47218        1.17780        1.29603
H          2.42632       -1.28422       -1.08468
H          2.96873       -0.70539        0.53225
H         -0.10602       -1.14046       -1.21602
H         -0.73973       -2.13361        0.11404
