19
dsC7O2H10nsd_1816.xyz
C          2.36831       -1.06485        0.00001
C          1.06280       -0.29224        0.00002
C          0.81744        0.81682       -1.07263
C         -0.05856        1.49881        0.00001
C          0.81737        0.81679        1.07268
O         -1.38637        0.94068       -0.00006
C         -1.49260       -0.41450        0.00001
O         -2.57459       -0.93148        0.00002
C         -0.17672       -1.19692       -0.00004
H          2.44794       -1.70750       -0.88446
H          3.22733       -0.38584        0.00035
H          2.44766       -1.70806        0.88409
H          1.72341        1.39501       -1.27238
H          0.33665        0.54165       -2.01524
H         -0.19682        2.57911        0.00002
H          1.72332        1.39497        1.27251
H          0.33651        0.54160        2.01525
H         -0.19331       -1.85403        0.87732
H         -0.19330       -1.85392       -0.87748
