19
dsC7O2H10nsd_4517.xyz
C         -2.49840       -0.39041       -0.38151
C         -1.28836        0.04353        0.43679
O         -0.80850        1.23982       -0.16888
C          0.48380        1.66760        0.20356
C          1.50369        0.54538        0.05956
O          1.27876       -0.19451       -1.17807
C          0.88284       -1.33634       -0.42072
C          1.19073       -0.69671        0.90773
C         -0.23449       -1.04945        0.55663
H         -2.98200       -1.25936        0.07566
H         -3.22603        0.42365       -0.43723
H         -2.19088       -0.65152       -1.39788
H         -1.61448        0.27568        1.46802
H          0.71908        2.49968       -0.46756
H          0.51518        2.04393        1.24174
H          2.53390        0.90834        0.12068
H          1.10780       -2.31424       -0.83049
H          1.73475       -1.04439        1.77534
H         -0.59826       -1.94578        1.05510
