19
dsC7O2H10nsd_2967.xyz
C          3.09891        0.18293       -0.34731
C          1.61276       -0.08221       -0.44726
C          0.89818       -0.77708        0.66076
C         -0.40988       -1.50307        0.33509
C         -1.24620       -0.48862       -0.46801
O         -2.62948       -0.58998       -0.26374
C         -0.72237        0.87440        0.02924
O         -1.45323        1.83170        0.15297
C          0.68464        0.73247        0.45994
H          3.40082        0.35431        0.69084
H          3.67028       -0.67170       -0.72494
H          3.38582        1.06407       -0.93014
H          1.25984       -0.26381       -1.45930
H          1.48289       -1.11942        1.50803
H         -0.24708       -2.44376       -0.19932
H         -0.95493       -1.72812        1.25741
H         -1.01374       -0.57249       -1.54395
H         -2.93502        0.32410       -0.14866
H          1.11661        1.49025        1.10153
