19
dsC7O2H10nsd_3058.xyz
C         -1.86753        1.53387       -0.29343
C         -1.04582        0.54666        0.53547
C          0.46912        0.80456        0.70315
C          0.94946       -0.54287        1.31877
C          0.56707       -1.10955       -0.09105
C          1.05375        0.29222       -0.63981
O          2.44890        0.46671       -0.68267
C         -0.92893       -0.86024       -0.10653
O         -1.81575       -1.54271       -0.54818
H         -1.40857        1.73843       -1.26549
H         -2.86395        1.12233       -0.47755
H         -1.97970        2.48749        0.23132
H         -1.51341        0.43707        1.52260
H          0.78078        1.76748        1.10736
H          2.02474       -0.57038        1.48221
H          0.41050       -0.93181        2.18669
H          0.92533       -2.05838       -0.48704
H          0.58711        0.64241       -1.56922
H          2.78924       -0.01456       -1.44355
