19
dsC7O2H10nsd_5690.xyz
O         -2.13730        0.45656        1.30836
C         -2.06218       -0.24890        0.08327
C         -0.76778       -1.01732       -0.06092
C         -0.16863       -1.26237       -1.41524
C          0.51269       -0.29001       -0.46437
C          1.81970       -0.71975        0.19557
O          2.03523       -0.08936        1.44171
C          0.44750        1.12387       -0.72552
C          0.44139        2.31992       -0.87340
H         -1.40577        1.08426        1.31489
H         -2.90789       -0.94507        0.08250
H         -2.19097        0.42341       -0.77859
H         -0.61847       -1.78456        0.69388
H          0.33758       -2.20354       -1.60307
H         -0.67049       -0.84193       -2.27979
H          1.78387       -1.79510        0.39703
H          2.65446       -0.53619       -0.49848
H          2.07405        0.85997        1.27799
H          0.42404        3.36841       -1.04325
