19
dsC7O2H10nsd_1683.xyz
C         -0.47219        1.99276        0.06977
C          0.10611        0.59925       -0.11719
C         -0.87041       -0.43378       -0.66125
C         -2.03811       -0.65239        0.27800
O         -3.19918       -0.59630       -0.03601
C          1.58130        0.61521       -0.50986
C          2.14258       -0.79782       -0.58670
O          1.60156       -1.12808        0.72294
C          1.15755        0.22109        0.89017
H         -1.34891        1.97638        0.72599
H          0.26305        2.67312        0.51141
H         -0.78531        2.41745       -0.89038
H         -1.25682       -0.14652       -1.64410
H         -0.36572       -1.40293       -0.75192
H         -1.73642       -0.88636        1.32549
H          2.06764        1.51028       -0.87486
H          1.77327       -1.46473       -1.37499
H          3.23732       -0.82905       -0.56308
H          1.29187        0.68138        1.86335
