19
dsC7O2H10nsd_2082.xyz
C          2.23876       -0.60424       -0.47716
C          0.82497       -0.35758        0.00402
C          0.26296       -1.27534        1.11042
C         -0.28363       -1.35799       -0.27801
O         -1.57475       -0.94411       -0.60755
C         -2.02515        0.20365        0.09571
C         -1.07838        1.39234       -0.08574
C          0.41165        1.07911        0.07346
O          1.22513        1.97361        0.15168
H          2.39013       -0.19541       -1.48116
H          2.96034       -0.12184        0.18745
H          2.45751       -1.67598       -0.50835
H          0.92378       -2.06611        1.44833
H         -0.32758       -0.83141        1.90203
H         -0.02276       -2.22296       -0.87874
H         -3.01284        0.43062       -0.31359
H         -2.16344       -0.02720        1.16168
H         -1.17259        1.77768       -1.10975
H         -1.34262        2.21692        0.58278
