19
dsC7O2H10nsd_4171.xyz
C         -0.39534        2.23088       -0.18558
C         -1.10022        0.88526       -0.16273
O         -1.00663        0.23752        1.13779
C         -0.59373       -1.09536        0.78812
C         -1.41978       -1.43027       -0.47338
C         -0.56191       -0.25388       -1.04256
C          0.61223       -0.85290       -0.16082
C          1.78872       -0.05564        0.33199
O          2.87439       -0.07144       -0.19716
H         -0.62919        2.75608       -1.11753
H         -0.74827        2.84637        0.64732
H          0.69078        2.14670       -0.10847
H         -2.16357        1.05118       -0.38583
H         -0.55023       -1.71367        1.68321
H         -1.17309       -2.39826       -0.91061
H         -2.50144       -1.28887       -0.41431
H         -0.43672       -0.06693       -2.10772
H          0.98247       -1.76355       -0.63639
H          1.60735        0.53370        1.25503
