19
dsC7O2H10nsd_1733.xyz
C          1.49042       -1.00761       -1.08944
C          0.76742       -0.33916        0.06911
O          1.69769       -0.00681        1.10331
C         -0.45374       -1.01523        0.76765
C         -1.49389       -1.26252       -0.35810
C         -1.58301        0.26062       -0.45341
C         -1.07778        0.42459        0.97181
C         -0.19037        0.82969       -0.17804
O          0.14103        2.09205       -0.62659
H          2.02003       -1.90278       -0.74815
H          0.80885       -1.28552       -1.89609
H          2.22878       -0.31815       -1.51857
H          2.45602        0.41332        0.68433
H         -0.25810       -1.74288        1.55188
H         -1.18720       -1.84742       -1.23180
H         -2.42007       -1.68088        0.04653
H         -2.31641        0.87110       -0.96534
H         -1.46758        0.95945        1.82410
H          0.67163        2.50953        0.06189
