19
dsC7O2H10nsd_4813.xyz
O         -3.14231       -0.72601       -0.22905
C         -1.86827       -1.22062        0.15061
C         -0.84153       -0.16190       -0.23782
C          0.58928       -0.59661        0.14931
C          1.68089        0.28395       -0.49326
C          3.02302       -0.11973       -0.09342
C          4.11761       -0.47577        0.25280
C         -1.16949        1.15170        0.45355
O         -0.99865        2.24192       -0.02620
H         -3.81591       -1.34226        0.07341
H         -1.81628       -1.40400        1.23709
H         -1.63188       -2.16976       -0.35356
H         -0.89456        0.01264       -1.31824
H          0.70524       -0.57809        1.24002
H          0.74255       -1.63707       -0.15787
H          1.59069        0.23044       -1.58577
H          1.51308        1.33505       -0.23135
H          5.09163       -0.77590        0.54992
H         -1.54588        1.03564        1.49779
