19
dsC7O2H10nsd_1423.xyz
C          0.83998        1.86849       -0.56718
C          0.84399        0.47602        0.06135
O          2.17662        0.01228        0.27880
C         -0.07655       -0.09071        1.14134
C         -1.60400        0.04729        0.88828
C         -2.02199        0.75393       -0.37704
C         -1.46838       -0.64229       -0.46039
C          0.05010       -0.77494       -0.23009
O          0.64673       -1.94368       -0.63707
H          1.85986        2.26274       -0.53698
H          0.53203        1.84755       -1.61673
H          0.19331        2.56462       -0.02809
H          2.50154        0.39789        1.09961
H          0.32643       -0.36729        2.10967
H         -2.31829       -0.17556        1.67044
H         -3.10058        0.79390       -0.50891
H         -1.51374        1.61800       -0.77934
H         -2.03319       -1.47918       -0.84913
H          1.58694       -1.83818       -0.43208
