19
dsC7O2H10nsd_5449.xyz
C         -2.34661        1.32034       -0.24573
C         -1.31658        0.26321       -0.04304
O         -0.85427       -0.48530       -1.17569
C         -0.24357       -1.40191       -0.22114
C         -1.16891       -0.86097        0.92605
C         -0.16294        0.29071        0.98456
C          0.94026       -0.58908        0.37780
C          1.97982        0.01267       -0.55718
O          2.84682        0.91786        0.11872
H         -2.63523        1.75705        0.71496
H         -1.95879        2.12281       -0.88241
H         -3.24153        0.90721       -0.72115
H         -0.14496       -2.41776       -0.59808
H         -1.81331       -1.31393        1.66647
H         -0.08271        1.05390        1.74932
H          1.42345       -1.16732        1.17243
H          2.62828       -0.77713       -0.95386
H          1.47807        0.48988       -1.40865
H          2.31756        1.67493        0.38872
