19
dsC7O2H10nsd_2553.xyz
C         -2.68585       -0.61187       -0.42120
C         -1.29516       -0.39569        0.10433
C         -0.33921       -1.32795        0.04351
C          1.04276       -1.07618        0.53980
O          2.09859       -1.00567       -0.43323
C          1.70617        0.20218        0.22696
C          0.97619        1.20414       -0.65384
O         -0.14923        1.81770       -0.04320
C         -0.99221        0.96231        0.72847
H         -2.80744       -1.60710       -0.85656
H         -3.43334       -0.49121        0.37333
H         -2.92690        0.13343       -1.18983
H         -0.54321       -2.30794       -0.38299
H          1.34230       -1.60684        1.44572
H          2.44152        0.59362        0.92925
H          1.63681        2.03055       -0.93370
H          0.69080        0.67279       -1.57044
H         -0.55510        0.81311        1.72613
H         -1.91642        1.53171        0.86227
