19
dsC7O2H10nsd_4354.xyz
C         -1.97677        1.40250       -0.50060
C         -0.72861        0.85698        0.18895
C          0.46627        1.83888        0.22311
C          1.68765        0.95812        0.51933
C          1.37497       -0.37475       -0.15780
O          2.15007       -1.25522       -0.42293
C         -0.14374       -0.40693       -0.45854
C         -0.75672       -1.72537       -0.03234
O         -1.71682       -1.81920        0.68890
H         -2.32738        2.31627       -0.00966
H         -1.77353        1.64583       -1.55049
H         -2.78885        0.67089       -0.46926
H         -0.99301        0.59395        1.22105
H          0.57917        2.31595       -0.75875
H          0.32371        2.63717        0.95586
H          2.64973        1.35058        0.18277
H          1.77809        0.75904        1.59615
H         -0.21842       -0.37141       -1.55778
H         -0.23375       -2.61946       -0.43027
