19
dsC7O2H10nsd_0785.xyz
O         -1.78283        1.87821       -0.16969
C         -1.88142        0.69522        0.05693
C         -0.76808       -0.27197       -0.05044
C         -0.78326       -1.43256        0.93811
C         -1.14091       -1.68575       -0.48559
C          0.54893        0.31280       -0.50711
C          1.38208        1.14294        0.49489
C          2.49493        0.12243        0.19161
O          1.59496       -0.68318       -0.60712
H         -2.85299        0.24731        0.37390
H          0.19026       -1.76780        1.27507
H         -1.56744       -1.44850        1.68747
H         -0.40750       -2.18639       -1.10628
H         -2.17760       -1.87795       -0.74119
H          0.40131        0.82219       -1.46785
H          1.57239        2.17871        0.21587
H          1.00348        1.10595        1.51775
H          3.32713        0.50760       -0.41058
H          2.90036       -0.44002        1.03998
