19
dsC7O2H10nsd_1306.xyz
C          3.02996       -0.93492        0.08233
C          1.97907        0.06803       -0.37283
O          2.51933        1.36919       -0.16379
C          0.68580       -0.08513        0.40424
O         -0.15726       -1.18206        0.03608
C         -0.62948        0.14202       -0.21059
C         -1.82733        0.59997        0.60555
C         -3.09700        0.14775        0.04700
C         -4.13188       -0.22341       -0.43716
H          3.94798       -0.80956       -0.49736
H          3.26799       -0.78149        1.13975
H          2.65955       -1.95454       -0.05209
H          1.75643       -0.10061       -1.43852
H          1.88260        2.01268       -0.49198
H          0.78470        0.07103        1.48096
H         -0.66773        0.40910       -1.26822
H         -1.71319        0.23092        1.63137
H         -1.82016        1.69716        0.66010
H         -5.04957       -0.55764       -0.85369
