19
dsC7O2H10nsd_3943.xyz
C          2.83587       -0.08502       -0.03854
C          1.38197       -0.05397       -0.46920
C          0.59988        1.26167       -0.12527
C         -0.77931        0.75009        0.22116
C         -1.10727        0.07229        1.52075
C         -0.65398       -0.74067        0.32846
C         -1.71191       -0.77468       -0.77989
O         -1.85596        0.67822       -0.73197
O          0.67043       -1.12820        0.21038
H          3.40504        0.68808       -0.56420
H          2.92031        0.09095        1.03854
H          3.28538       -1.05540       -0.26575
H          1.31349       -0.23249       -1.55270
H          1.06884        1.78305        0.71533
H          0.57036        1.94557       -0.97621
H         -0.36662        0.16588        2.30678
H         -2.14158        0.02841        1.84873
H         -1.30524       -1.10117       -1.74367
H         -2.65726       -1.29124       -0.57895
