19
dsC7O2H10nsd_1430.xyz
C         -1.02455       -1.55049       -0.93957
C         -1.02087       -0.32434       -0.04639
C         -2.38163        0.33784        0.09527
C         -0.15041       -0.22200        1.16328
O          1.07160       -0.98651        0.98340
C          1.44439       -0.14321       -0.05847
O          2.47416       -0.14258       -0.65156
C          0.17598        0.67495       -0.01485
C          0.12969        2.14959       -0.29615
H         -1.29134       -1.27607       -1.96562
H         -0.05541       -2.05105       -0.95895
H         -1.76755       -2.27333       -0.58443
H         -3.12282       -0.40598        0.40556
H         -2.38243        1.13804        0.84084
H         -2.71577        0.76334       -0.85702
H         -0.44260       -0.00068        2.18145
H          0.38425        2.33890       -1.34427
H         -0.86007        2.57243       -0.11210
H          0.85213        2.69306        0.32114
