19
dsC7O2H10nsd_1640.xyz
C          2.57365       -0.79922       -0.57343
C          1.37802        0.05257       -0.20595
C          1.47601        1.51939       -0.24951
O          1.51813        0.81420        0.99886
C          0.04233       -0.62105       -0.37750
C         -0.54705       -1.42578        0.73303
C         -1.17374       -0.08660        0.36442
C         -2.47065       -0.08584       -0.34516
O         -3.31933        0.76405       -0.23970
H          2.58731       -1.71815        0.02149
H          2.53657       -1.08368       -1.63052
H          3.50330       -0.25530       -0.39084
H          2.41261        1.98896       -0.54607
H          0.58067        2.11567       -0.41518
H         -0.13876       -0.98800       -1.38536
H         -1.09600       -2.32847        0.48608
H         -0.02240       -1.44802        1.68117
H         -1.00755        0.73641        1.04919
H         -2.61754       -0.96619       -1.01859
