19
dsC7O2H10nsd_3692.xyz
C          2.36095        1.51692        0.10259
C          1.93589        0.14893        0.58891
C          2.06780       -1.06720       -0.32554
C          0.72514       -0.50907        0.01052
C         -0.47959       -1.15140        0.68741
C         -1.28696       -0.42473       -0.42614
O         -0.08291        0.14292       -0.98112
C         -2.23840        0.63903        0.07991
O         -3.42416        0.47741        0.20272
H          1.89137        2.30936        0.69527
H          3.44638        1.64225        0.17358
H          2.06529        1.66763       -0.93916
H          2.10739       -0.04055        1.64678
H          2.42759       -0.88985       -1.33447
H          2.36100       -2.02107        0.10167
H         -0.53169       -2.24014        0.64590
H         -0.68268       -0.81521        1.70712
H         -1.80587       -1.08172       -1.13140
H         -1.73121        1.59191        0.35602
