19
dsC7O2H10nsd_0619.xyz
C         -0.88406        1.31129       -0.57186
O         -1.79209        0.21714       -0.70537
C         -1.46859       -0.77690        0.21562
C         -0.08870       -1.39175        0.18631
O          0.78100       -1.03402       -0.84373
C          1.92409       -0.33944       -0.34115
C          1.53861        1.02646        0.27668
C          0.04013        1.05540        0.65931
C         -0.42828       -0.30083        1.18773
H         -0.29299        1.39800       -1.48938
H         -1.47425        2.22885       -0.45471
H         -2.32139       -1.38452        0.49750
H          0.02608       -2.41500        0.54560
H          2.43290       -0.96717        0.40422
H          2.59902       -0.22039       -1.19196
H          2.15550        1.21142        1.16253
H          1.74907        1.84118       -0.42471
H         -0.12488        1.82774        1.41429
H         -0.45953       -0.49035        2.25370
