19
dsC7O2H10nsd_0673.xyz
O          2.49819       -0.00004       -0.16301
C          1.29884       -0.00001       -0.13558
O          0.57451       -0.00029       -1.29020
C         -0.86113       -0.00030       -1.09034
C         -1.24205        1.26767       -0.31829
C         -0.48561        1.25978        1.03738
C          0.41079        0.00030        1.09699
C         -0.48560       -1.25923        1.03805
C         -1.24192       -1.26792       -0.31767
H         -1.28480       -0.00056       -2.09621
H         -0.96907        2.14128       -0.91632
H         -2.32713        1.29686       -0.17897
H          0.12441        2.16003        1.14903
H         -1.18066        1.23844        1.88289
H          1.04761        0.00054        1.98199
H          0.12441       -2.15941        1.15029
H         -1.18071       -1.23738        1.88350
H         -0.96874       -2.14178       -0.91525
H         -2.32701       -1.29723       -0.17843
