19
dsC7O2H10nsd_5864.xyz
C         -4.42803       -0.18659       -0.09771
C         -2.97679        0.07737       -0.50242
C         -1.98672       -0.23756        0.63838
C         -0.59467        0.00157        0.27791
C          0.54141        0.20728       -0.07172
C          1.94433        0.44362       -0.39095
O          2.40773        1.72494        0.02307
C          2.79711       -0.63921        0.29743
O          3.29123       -1.57615       -0.26469
H         -4.71942        0.42628        0.76257
H         -5.11288        0.04521       -0.91849
H         -4.58018       -1.23639        0.17648
H         -2.71152       -0.52700       -1.37668
H         -2.85103        1.12402       -0.80058
H         -2.24166        0.36484        1.52070
H         -2.10442       -1.28511        0.94676
H          2.12456        0.36637       -1.46851
H          1.89775        1.98532        0.79740
H          2.92731       -0.45276        1.38775
