19
dsC7O2H10nsd_3258.xyz
O         -2.30339        0.21285       -0.46266
C         -1.37583       -0.35938        0.42182
C         -0.27809        0.51107        1.09570
C          0.30668        1.49646        0.05126
C          1.17806        0.54503       -0.79211
C          1.95783       -0.23091        0.28165
C          0.68981       -0.73239        0.96484
C         -0.23384       -1.16025       -0.23143
O          0.32431       -0.46762       -1.35057
H         -2.98257        0.65542        0.05600
H         -1.86934       -0.99226        1.17510
H         -0.48112        0.94714        2.07526
H         -0.47770        1.97023       -0.54274
H          0.91776        2.27450        0.51996
H          1.74297        1.00045       -1.60568
H          2.57064       -1.03012       -0.14331
H          2.57359        0.40929        0.91933
H          0.76803       -1.41111        1.81104
H         -0.39738       -2.20314       -0.50956
