19
dsC7O2H10nsd_2594.xyz
C         -2.77867        0.07524       -0.03709
C         -1.28247        0.22441        0.10341
C         -0.69938        1.42407        0.03236
C          0.76909        1.75328        0.11246
O          1.63156        0.83237       -0.52875
C          1.96688       -0.29503        0.23314
C          0.87093       -1.32542        0.39480
O          0.13248       -1.69878       -0.76066
C         -0.57802       -1.07225        0.33362
H         -3.26880        1.04094       -0.18044
H         -3.02863       -0.56547       -0.89184
H         -3.21484       -0.40202        0.84976
H         -1.34408        2.28895       -0.11707
H          0.93831        2.71268       -0.38815
H          1.07771        1.88846        1.16508
H          2.80782       -0.77024       -0.28590
H          2.31957       -0.00788        1.24021
H          1.19167       -2.16925        1.01553
H         -1.20119       -1.79073        0.87206
