19
dsC7O2H10nsd_5062.xyz
C          2.82421       -0.81564       -0.01768
C          1.38707       -0.83365       -0.56067
C          0.52562        0.19084        0.10586
C         -0.19909        0.05147        1.38963
C         -1.02473        0.38151        0.15183
C         -0.70270        1.80201       -0.28984
O          0.72849        1.56372       -0.22426
C         -2.02674       -0.52924       -0.39996
O         -2.16059       -1.68718       -0.06666
H          3.44000       -1.55645       -0.53526
H          3.28197        0.16735       -0.16173
H          2.84311       -1.04453        1.05227
H          1.39355       -0.64387       -1.63987
H          0.92916       -1.81652       -0.40509
H         -0.35789       -0.96446        1.73580
H         -0.09013        0.81106        2.15881
H         -1.00720        2.01725       -1.32102
H         -1.01504        2.62032        0.36880
H         -2.66258       -0.08627       -1.20036
