19
dsC7O2H10nsd_1612.xyz
C         -1.73692        1.68656       -0.23039
C         -1.02820        0.35345        0.01146
C          0.03893       -0.02791       -1.04608
C          1.16797        0.44621       -0.07903
C          0.12247        0.45104        1.07946
C          2.33481       -0.48781        0.08625
O          3.49272       -0.18170       -0.03478
C         -2.03266       -0.72391        0.34657
O         -2.07040       -1.81889       -0.15424
H         -2.37307        1.63946       -1.12071
H         -2.36726        1.95933        0.62374
H         -1.01067        2.49160       -0.37889
H          0.04902       -1.10854       -1.21326
H         -0.01427        0.48122       -2.01011
H          1.54345        1.44359       -0.31342
H          0.19471       -0.44574        1.70337
H          0.11668        1.33015        1.72710
H          2.03901       -1.53541        0.33711
H         -2.75463       -0.43672        1.14775
