19
dsC7O2H10nsd_2526.xyz
C          2.64385       -1.04093        0.15206
C          1.29177       -0.38275        0.02073
C          0.18621       -1.13866        0.11817
C         -1.26695       -0.86783       -0.04129
O         -2.01602       -1.77428       -0.31371
O         -1.80129        0.36627        0.12575
C         -1.02225        1.48598        0.54607
C          0.06756        1.85316       -0.45658
C          1.37576        1.10336       -0.21191
H          3.23330       -0.56326        0.94468
H          2.56153       -2.10586        0.37711
H          3.22106       -0.92803       -0.77419
H          0.32443       -2.20713        0.25559
H         -1.75380        2.29172        0.63872
H         -0.59843        1.29904        1.54172
H         -0.31974        1.65505       -1.46210
H          0.26404        2.92955       -0.40166
H          2.06911        1.28302       -1.04497
H          1.88128        1.53607        0.66521
