19
dsC7O2H10nsd_0689.xyz
O          1.65377        1.69739       -0.34480
C          1.37966        0.56252       -0.11527
O          2.23964       -0.48580        0.09042
C          1.12512       -1.42027        0.26997
C          0.10844       -0.27816        0.05008
C         -0.80830        0.10707        1.24327
C         -2.12034        0.59976        0.60806
C         -2.25344       -0.27454       -0.64641
C         -0.81632       -0.31332       -1.19705
H          1.15211       -2.20129       -0.49361
H          1.15052       -1.85857        1.27063
H         -0.99914       -0.78944        1.84444
H         -0.34597        0.84660        1.90212
H         -2.97215        0.52120        1.28898
H         -2.02420        1.65272        0.31887
H         -2.58175       -1.28325       -0.36627
H         -2.97164        0.11268       -1.37402
H         -0.61593       -1.17681       -1.83692
H         -0.62800        0.58508       -1.79509
