19
dsC7O2H10nsd_6044.xyz
C          3.50001        0.38821       -0.06677
O          2.36746       -0.44144        0.03701
C          1.17189        0.22334       -0.30564
C          0.03845       -0.75467       -0.15386
O         -0.61112       -0.82811        1.11419
C         -1.37265       -0.33362       -0.00552
C         -2.49190       -1.24104       -0.47622
C         -1.70243        1.07463        0.03504
C         -2.02666        2.23229        0.04155
H          3.43433        1.25565        0.60851
H          4.36998       -0.21128        0.21126
H          3.63895        0.76357       -1.09355
H          0.99704        1.09633        0.33947
H          1.21187        0.58080       -1.35037
H          0.22074       -1.72304       -0.62279
H         -2.15866       -2.28136       -0.46724
H         -3.35831       -1.14448        0.18440
H         -2.80516       -0.97279       -1.48958
H         -2.30177        3.25809        0.05881
