19
dsC7O2H10nsd_3831.xyz
C          2.50207       -0.90111        0.11402
C          1.27319       -0.28333       -0.51887
O          1.16758        1.15774       -0.30150
C         -0.17892        1.03736        0.14364
C         -1.18913        2.00568       -0.37430
C         -0.26619        0.23618        1.38373
C         -0.11760       -0.52208        0.06991
C         -1.16322       -1.40076       -0.45091
O         -2.28905       -1.47218       -0.00578
H          3.40682       -0.43464       -0.28780
H          2.50362       -0.77401        1.19952
H          2.54145       -1.97201       -0.11191
H          1.26502       -0.47073       -1.60165
H         -1.04593        2.98732        0.09157
H         -1.09771        2.12453       -1.45745
H         -2.19753        1.65684       -0.13666
H          0.55564        0.24182        2.09297
H         -1.25969        0.12645        1.80572
H         -0.86108       -2.00174       -1.33936
