19
dsC7O2H10nsd_2334.xyz
O         -0.77202       -1.39768       -1.09864
C         -0.54114       -0.58760        0.04560
C         -1.90793       -0.22463        0.68980
C         -1.84777        1.16864       -0.03660
C         -0.37557        0.89407       -0.25259
C          0.79235        1.51879       -0.23031
C          2.04577        0.69555       -0.04412
O          1.81435       -0.70687        0.02380
C          0.67795       -1.07076        0.81593
H          0.06630       -1.42180       -1.57719
H         -2.72962       -0.88967        0.42005
H         -1.84784       -0.12825        1.77627
H         -2.42635        1.15902       -0.96519
H         -2.11768        2.05738        0.53926
H          0.90148        2.60079       -0.24797
H          2.75149        0.83758       -0.87128
H          2.55969        1.03605        0.87362
H          0.73206       -0.61896        1.81765
H          0.70975       -2.16008        0.90730
