19
dsC7O2H10nsd_5462.xyz
C          2.89930        0.24604       -0.31258
O          1.73110        0.53205        0.42710
C          0.78676       -0.51118        0.39748
C         -0.45413       -0.11468        1.17791
C         -1.60980       -0.80147        0.42883
O         -1.05002       -1.59423       -0.62415
C         -0.14793       -0.47934       -0.85327
C         -1.10235        0.50720       -0.06548
C         -1.69867        1.84422       -0.35169
H          2.69267        0.09924       -1.38306
H          3.56894        1.10184       -0.19975
H          3.40610       -0.65506        0.06500
H          1.26066       -1.48151        0.61092
H         -0.52138        0.20642        2.20969
H         -2.54318       -1.10748        0.88388
H          0.21978       -0.40307       -1.87503
H         -2.29018        1.83180       -1.27401
H         -2.36028        2.15189        0.46529
H         -0.92090        2.60853       -0.45378
