19
dsC7O2H10nsd_5924.xyz
C         -3.54545       -0.06839        0.01345
C         -2.08378       -0.45977       -0.21872
C         -1.11951        0.70500        0.02582
C          0.34881        0.34103       -0.21907
O          0.70795       -0.67958        0.75829
C          1.61475       -1.59201        0.37157
O          2.15065       -1.65962       -0.69877
C          1.24012        1.48805       -0.07934
C          1.94681        2.45247        0.03480
H         -3.70675        0.26762        1.04359
H         -3.84964        0.74733       -0.65172
H         -4.21481       -0.91436       -0.16912
H         -1.81464       -1.29357        0.43865
H         -1.95851       -0.82330       -1.24725
H         -1.36214        1.54319       -0.63747
H         -1.21794        1.07691        1.05212
H          0.47735       -0.09939       -1.21305
H          1.78355       -2.28614        1.20953
H          2.58422        3.29710        0.12760
