19
dsC7O2H10nsd_5203.xyz
O          2.49986       -0.93356       -0.42167
C          1.43105       -0.88189        0.51592
C          0.46190        0.22965        0.21134
C          0.76846        1.74494        0.11060
C         -0.73852        1.63950       -0.17889
C         -0.94228        0.49896        0.87755
C         -1.67943       -0.37275       -0.16057
O         -1.58281       -1.77731       -0.07795
C         -0.57267        0.30018       -0.97651
H          2.97181       -0.09618       -0.36904
H          0.91752       -1.84384        0.45209
H          1.81168       -0.76878        1.54536
H          1.05919        2.25305        1.03685
H          1.40392        2.06722       -0.72188
H         -1.45220        2.43170       -0.40709
H         -1.13625        0.63624        1.94349
H         -2.70565       -0.05516       -0.39857
H         -2.23584       -2.08939        0.55623
H         -0.34156        0.20060       -2.03713
