19
dsC7O2H10nsd_3435.xyz
C         -2.92756       -0.28083       -0.05009
C         -1.46037       -0.02262       -0.17347
C         -0.83556        1.12381       -0.46242
C          0.67842        0.99273       -0.45410
O          1.31249        1.83416        0.49697
C          0.89637       -0.49940       -0.13290
C          2.13960       -1.20564       -0.58705
O          0.43815       -0.78359        1.20381
C         -0.42890       -1.08873        0.07338
H         -3.18314       -0.62284        0.96061
H         -3.51205        0.61700       -0.26646
H         -3.25159       -1.07113       -0.73889
H         -1.31784        2.08352       -0.61428
H          1.12159        1.25782       -1.42140
H          1.02750        1.49972        1.35821
H          3.02474       -0.69118       -0.19729
H          2.15310       -2.23781       -0.22845
H          2.20703       -1.21005       -1.68006
H         -0.64643       -2.14549       -0.05832
