19
dsC7O2H10nsd_2867.xyz
C          2.05307       -1.12797        0.23273
C          1.03610       -0.44675       -0.67459
C         -0.31516       -1.16037       -0.73883
C         -1.34316       -0.01514       -0.97975
O         -0.60974        1.19794       -1.09564
C          0.24502        0.72506       -0.00881
C          0.87128        1.82045        0.79461
C         -0.88505       -0.34642        0.39864
O         -1.46597       -0.76215        1.56598
H          2.92551       -0.48748        0.40227
H          1.61364       -1.37299        1.20615
H          2.41088       -2.06200       -0.21269
H          1.48479       -0.16595       -1.63481
H         -0.53652       -2.18743       -1.00171
H         -2.27761       -0.13198       -1.51232
H          0.10703        2.47160        1.22927
H          1.47932        1.40861        1.60503
H          1.51717        2.43490        0.15729
H         -2.09110       -0.08674        1.85488
