19
dsC7O2H10nsd_2147.xyz
C         -2.19189        0.41933       -0.44759
C         -0.85738       -0.14768       -0.06593
C         -0.33495       -1.47420       -0.65873
C          1.08703       -1.23156       -0.13201
O          1.47578       -0.04435       -0.88609
C          0.54622        0.66195       -0.05433
C          0.60665        2.15636       -0.07139
C          0.71422       -0.31111        1.11729
O         -0.68440       -0.41063        1.36827
H         -2.22510        0.61365       -1.52422
H         -2.99463       -0.28474       -0.20413
H         -2.38993        1.35581        0.08168
H         -0.85801       -2.32624       -0.21925
H         -0.34017       -1.52921       -1.74913
H          1.83555       -2.02098       -0.13139
H          1.62041        2.50442        0.14645
H          0.31334        2.54761       -1.05134
H         -0.07291        2.56711        0.68111
H          1.36089       -0.22607        1.98900
