19
dsC7O2H10nsd_2919.xyz
C          0.69609        2.24852       -0.52697
C          0.37340        0.85830       -0.07303
C          1.05910        0.02061        0.94431
O          1.46679       -1.24422        0.46276
C          0.94460       -1.35829       -0.86847
C         -0.18397       -0.33214       -0.91898
C         -1.22525       -0.60597        0.21867
O         -2.48892       -0.01696       -0.02168
C         -0.42263        0.30890        1.12674
H          1.48613        2.24715       -1.28766
H         -0.18323        2.74143       -0.95601
H          1.04554        2.86249        0.30975
H          1.75155        0.44915        1.65970
H          1.73039       -1.13960       -1.60772
H          0.60363       -2.38942       -1.01401
H         -0.60385       -0.12858       -1.90433
H         -1.33173       -1.65708        0.52856
H         -2.95219       -0.56518       -0.66342
H         -0.81719        0.82944        1.99278
