19
dsC7O2H10nsd_5447.xyz
C         -3.13219       -0.67900        0.05250
O         -2.14362        0.16079       -0.50112
C         -1.10169        0.45422        0.38788
C          0.07632        1.20148       -0.23666
C          1.07109        0.63193        0.83475
C          2.05324        0.18402       -0.26812
O          2.95912       -0.86082       -0.02969
C          0.66664       -0.10520       -0.87716
C          0.07187       -0.54251        0.51709
H         -3.58773       -0.23258        0.95039
H         -3.90744       -0.81339       -0.70549
H         -2.73065       -1.66627        0.32614
H         -1.49705        0.85610        1.33503
H          0.10256        2.20027       -0.67233
H          1.26964        1.05994        1.81839
H          2.63184        0.98147       -0.74502
H          2.47941       -1.59260        0.37365
H          0.40395       -0.51939       -1.84934
H          0.07983       -1.54292        0.95347
