19
dsC7O2H10nsd_6014.xyz
C          3.88058       -0.33876        0.10077
C          2.41646       -0.58819       -0.26852
C          1.51961        0.62982       -0.00649
C          0.07415        0.40319       -0.39930
C         -1.00351        1.14353        0.29999
O         -2.27843        0.87162       -0.34388
C         -2.19388       -0.46661        0.04238
O         -3.02223       -1.30593       -0.08954
C         -0.82209       -0.31411        0.63982
H          4.49526       -1.22147       -0.09879
H          4.29835        0.49510       -0.47410
H          3.98606       -0.09307        1.16335
H          2.34456       -0.86370       -1.32839
H          2.03175       -1.44734        0.29449
H          1.57461        0.90625        1.05513
H          1.90200        1.49282       -0.56741
H         -0.09657        0.17145       -1.44842
H         -0.93235        2.03456        0.90760
H         -0.42627       -0.81341        1.51200
