19
dsC7O2H10nsd_5908.xyz
C          3.15189       -0.41902       -0.42302
C          1.92321        0.08264        0.31604
O          0.78118       -0.50659       -0.29796
C         -0.49208       -0.07153        0.16066
C         -0.79872       -0.48021        1.60602
C         -1.46132       -0.77614       -0.82279
O         -2.53168       -1.22172       -0.52004
C         -0.68845        1.37158       -0.05084
C         -0.87909        2.54055       -0.25994
H          4.05790        0.00327        0.02179
H          3.21581       -1.50957       -0.37033
H          3.11237       -0.12787       -1.47629
H          1.97349       -0.19655        1.37810
H          1.85335        1.17765        0.26111
H         -0.23082        0.12095        2.31848
H         -1.86448       -0.34625        1.79999
H         -0.54977       -1.53615        1.74099
H         -1.05051       -0.82155       -1.85208
H         -1.04603        3.57529       -0.43460
