19
dsC7O2H10nsd_5222.xyz
O          2.66812       -0.57586       -0.36135
C          1.61101       -0.68839        0.58222
C          0.43419        0.18163        0.23094
C          0.39437        1.72263        0.05681
C         -1.05434        1.27052       -0.22921
C         -0.96171        0.25011        0.95582
C         -1.73852       -0.98653        0.52312
O         -1.35423       -1.07452       -0.86066
C         -0.50198        0.04502       -1.00987
H          2.96354        0.34035       -0.35744
H          1.30983       -1.74176        0.56618
H          1.95878       -0.46259        1.60398
H          0.54665        2.31824        0.96105
H          0.95250        2.14229       -0.78645
H         -1.91402        1.88827       -0.48994
H         -1.03000        0.59637        1.98777
H         -1.44613       -1.90064        1.05431
H         -2.82600       -0.86572        0.60612
H         -0.12437        0.11834       -2.02845
