19
dsC7O2H10nsd_4706.xyz
C         -2.85745       -0.52014        0.73695
C         -1.60965       -0.96280       -0.02763
C         -0.39656       -0.04278        0.21247
C         -0.61551        1.32241       -0.26186
C         -0.78831        2.43244       -0.69127
C          0.87894       -0.58740       -0.47174
O          0.84202       -1.47086       -1.29140
C          2.20465        0.06312       -0.05703
O          2.30126        0.29691        1.33821
H         -3.69235       -1.19915        0.54001
H         -2.68187       -0.51314        1.81872
H         -3.16459        0.48792        0.44299
H         -1.32244       -1.97795        0.26644
H         -1.80947       -1.00227       -1.10216
H         -0.17162        0.01070        1.28631
H         -0.94744        3.41846       -1.05231
H          3.01942       -0.55974       -0.44547
H          2.26382        1.04558       -0.53845
H          2.46357       -0.54789        1.77005
