19
dsC7O2H10nsd_2053.xyz
O         -1.05239        1.85106       -0.22420
C         -1.09885        0.50882        0.07917
C         -2.34726       -0.11072        0.63401
C         -1.69387       -0.71991       -0.58242
O         -0.58721       -1.53822       -0.18994
C          0.10972       -0.38647        0.38317
C          1.35904       -0.06264       -0.38133
C          2.40313        0.83407        0.24865
C          2.68384       -0.63194        0.05853
H         -0.36694        1.98568       -0.88884
H         -2.34986       -0.64723        1.57993
H         -3.23987        0.47094        0.42187
H         -2.18117       -0.93058       -1.52671
H          0.33766       -0.54330        1.44644
H          1.20834        0.03130       -1.45418
H          2.91616        1.54710       -0.38683
H          2.21909        1.19182        1.25623
H          3.38853       -0.92720       -0.71025
H          2.69044       -1.26854        0.93686
