19
dsC7O2H10nsd_5820.xyz
O         -1.75801       -0.33678        1.38292
C         -2.25561        0.06019        0.11563
C         -1.07925        0.28946       -0.84811
C         -0.24430       -0.97721       -1.12991
C          0.82820       -1.24156       -0.06355
C          1.70739       -0.02582        0.18731
O          2.87219       -0.12006        0.52121
C          1.04632        1.29210        0.05197
C         -0.20971        1.43048       -0.38713
H         -2.50453       -0.49817        1.96689
H         -2.91410       -0.71112       -0.31423
H         -2.84308        0.98923        0.19510
H         -1.55564        0.59955       -1.78950
H         -0.90538       -1.84565       -1.22454
H          0.24671       -0.85102       -2.10228
H          0.34390       -1.48266        0.88925
H          1.47270       -2.08199       -0.33407
H          1.64540        2.14812        0.34761
H         -0.65763        2.42263       -0.42454
