19
dsC7O2H10nsd_3195.xyz
C         -2.62641       -0.09503       -0.28780
C         -1.20294        0.37506       -0.56333
C         -0.42768        1.03421        0.60120
O          0.79544        1.45627       -0.07179
C          1.12961        0.06383       -0.11525
C          2.53371       -0.29831       -0.48074
C          0.33025       -0.25759        1.15559
O         -0.26474       -1.42848        0.59772
C         -0.14351       -0.74207       -0.68494
H         -2.65153       -0.80321        0.54288
H         -3.27292        0.75406       -0.04215
H         -3.05161       -0.59035       -1.16716
H         -1.16459        1.05605       -1.41854
H         -0.88833        1.80557        1.21549
H          2.67718       -1.37780       -0.37639
H          2.74693       -0.02037       -1.51822
H          3.24884        0.21720        0.16668
H          0.67890       -0.33113        2.18426
H         -0.12667       -1.41299       -1.54266
