19
dsC7O2H10nsd_4904.xyz
C          2.01190       -1.02822       -0.26780
C          1.12029        0.16784        0.00567
C          1.60644        1.45350       -0.63048
O          0.65742        0.30526        1.35605
C         -0.32822        0.01047        0.34550
C         -0.98826       -1.36168        0.46831
O         -1.51093       -1.82294       -0.76170
C         -1.25918        1.07158        0.03230
C         -2.07578        1.91697       -0.22011
H          3.01911       -0.82277        0.11045
H          1.65869       -1.94044        0.21351
H          2.09809       -1.20515       -1.34554
H          1.66607        1.34774       -1.71888
H          0.94120        2.28484       -0.39699
H          2.60961        1.69144       -0.26074
H         -0.27594       -2.06388        0.91796
H         -1.84173       -1.28093        1.14777
H         -0.77816       -1.92081       -1.37838
H         -2.79200        2.66857       -0.44426
