19
dsC7O2H10nsd_3180.xyz
O         -1.70325       -1.47667       -0.53353
C         -0.71800       -1.01972        0.38206
C          0.68352       -1.20580       -0.17742
C          1.88492       -0.83254        0.65237
C          1.55526       -0.03932       -0.58736
C          1.07426        1.39517       -0.44954
C         -0.20428        1.56008        0.34643
O         -1.42026        1.23336       -0.33770
C         -1.03615        0.41893        0.77857
H         -1.83220       -0.75183       -1.15952
H         -0.82650       -1.65642        1.26806
H          0.76216       -2.10904       -0.77405
H          1.70224       -0.35401        1.61140
H          2.74754       -1.48932        0.64358
H          2.20003       -0.20807       -1.44429
H          1.85850        2.00312        0.01812
H          0.89757        1.82999       -1.44066
H         -0.27922        2.48014        0.92695
H         -1.67919        0.54109        1.64955
