19
dsC7O2H10nsd_5530.xyz
O          2.94762       -0.26575       -0.33662
C          1.84271       -0.35496        0.55547
C          0.75354        0.64949        0.20860
C         -0.61723        0.70829        0.98682
C         -1.15990        1.43436       -0.27649
C         -0.22488        0.44052       -1.02015
C         -0.84884       -0.92442       -0.65332
O         -2.20203       -0.88125       -0.17007
C         -1.12576       -0.73569        0.77132
H          2.63058       -0.48695       -1.21809
H          1.45115       -1.38073        0.59965
H          2.24808       -0.12250        1.54693
H          1.21242        1.64235        0.15859
H         -0.69683        1.13566        1.98605
H         -2.22668        1.37859       -0.47887
H         -0.79576        2.46012       -0.34178
H          0.08883        0.60259       -2.05154
H         -0.54049       -1.85597       -1.11530
H         -1.05382       -1.50275        1.53436
