19
dsC7O2H10nsd_5616.xyz
C         -2.47526       -0.85372       -0.84535
C         -1.40525       -0.13297       -0.07596
O         -1.19378       -0.57233        1.29219
C         -0.11330       -0.69641        0.36514
C          0.91681        0.42906        0.43396
C          2.07683        0.20692       -0.53712
O          2.79112       -0.94038       -0.10092
C          0.08930        1.65333        0.08780
C         -1.17095        1.34123       -0.22267
H         -2.35772       -0.69067       -1.92200
H         -2.43345       -1.92701       -0.64547
H         -3.46956       -0.49351       -0.55832
H          0.21161       -1.70983        0.14724
H          1.33698        0.50365        1.44538
H          1.68007        0.07122       -1.55580
H          2.72067        1.10038       -0.55099
H          3.47577       -1.13460       -0.74744
H          0.49780        2.65757        0.12786
H         -1.94996        2.03976       -0.50543
