19
dsC7O2H10nsd_5611.xyz
C          3.25305        0.06067       -0.15152
C          1.96679       -0.46587        0.49196
C          0.68367       -0.06710       -0.25437
C          0.34308        1.40945       -0.20566
C         -0.95668        1.65938        0.01428
C         -1.67473        0.37732        0.13070
O         -2.86184        0.14235        0.06294
C         -0.60825       -0.71506        0.28523
O         -0.97907       -1.90632       -0.35631
H          4.13303       -0.27542        0.40475
H          3.35400       -0.29762       -1.18179
H          3.28241        1.15515       -0.17698
H          2.00348       -1.56070        0.53263
H          1.90012       -0.12061        1.53195
H          0.78484       -0.37052       -1.30627
H          1.09783        2.17428       -0.35737
H         -1.44232        2.62633        0.04063
H         -0.48000       -0.87503        1.37240
H         -1.94764       -1.89689       -0.37675
