19
dsC7O2H10nsd_0397.xyz
C         -1.70745       -1.23252       -0.62159
O         -1.47072       -1.18626        0.79423
C         -1.02222       -0.10054        0.00602
C         -1.48626        1.34918        0.16076
C         -0.06340        1.78491       -0.30519
C          0.44296        0.33075       -0.11016
C          1.49627       -0.34507       -1.00334
O          2.35042       -0.62757        0.12052
C          1.41516       -0.02376        1.03776
H         -1.14006       -1.98842       -1.16267
H         -2.74924       -1.12922       -0.92359
H         -2.33656        1.67216       -0.44375
H         -1.68235        1.59715        1.20765
H         -0.03979        2.09039       -1.35491
H          0.43545        2.55033        0.29339
H          1.17088       -1.26118       -1.51462
H          1.97782        0.31696       -1.73583
H          1.02419       -0.74769        1.76242
H          1.85164        0.83257        1.56826
