19
dsC7O2H10nsd_0590.xyz
C         -1.76327       -0.77681       -0.10299
C         -1.76323        0.77684       -0.10300
C         -0.33825        1.17354        0.30656
O          0.54336        1.16210       -0.84748
C          1.34187        0.00001       -0.69590
C          1.70063       -0.00006        0.79098
C          0.21299       -0.00004        1.15728
C         -0.33827       -1.17356        0.30649
O          0.54330       -1.16203       -0.84758
H         -2.48241       -1.17135        0.62232
H         -2.00712       -1.20855       -1.07589
H         -2.00697        1.20856       -1.07594
H         -2.48243        1.17143        0.62222
H         -0.27672        2.16008        0.77624
H          2.12213        0.00002       -1.45476
H          2.23793       -0.89795        1.10278
H          2.23797        0.89778        1.10284
H         -0.07382       -0.00007        2.20805
H         -0.27674       -2.16013        0.77608
