19
dsC7O2H10nsd_1289.xyz
C         -2.47584        1.05898       -0.26048
C         -1.51382       -0.00247        0.27391
O         -2.10060       -1.30396        0.22327
C         -0.16870        0.00459       -0.44856
C          0.78080        1.13950       -0.05458
C          2.18613        0.51854       -0.18020
O          2.04222       -0.80783       -0.68339
C          0.89389       -0.92173        0.20574
C          1.40271        0.30045        1.06368
H         -2.07366        2.06763       -0.12317
H         -2.65491        0.91514       -1.33352
H         -3.43602        0.99381        0.25832
H         -1.34178        0.17619        1.34240
H         -2.30863       -1.49391       -0.69855
H         -0.31459       -0.17281       -1.52386
H          0.61596        2.20957       -0.07700
H          3.09137        1.07171       -0.39244
H          0.66804       -1.93751        0.51861
H          1.59016        0.47734        2.11311
