19
dsC7O2H10nsd_0352.xyz
C         -1.27399       -1.21385       -0.44376
C         -2.25957       -0.07208       -0.43005
C         -1.76562        1.01632        0.16262
C         -0.34794        0.79181        0.61954
O          0.53512        1.37403       -0.34560
C          1.85746        0.88086       -0.20664
C          1.86933       -0.62289       -0.42852
O          1.05459       -1.27622        0.53323
C         -0.25728       -0.75626        0.63395
H         -1.71986       -2.18448       -0.20497
H         -0.80121       -1.31465       -1.42927
H         -3.24869       -0.14618       -0.86932
H         -2.26840        1.97017        0.26605
H         -0.11713        1.21725        1.60848
H          2.46741        1.39401       -0.95652
H          2.25869        1.11230        0.79429
H          1.52507       -0.83917       -1.45210
H          2.87547       -1.03632       -0.30780
H         -0.62331       -1.09892        1.60729
