19
dsC7O2H10nsd_5238.xyz
C          2.76346        0.02041       -0.22468
O          1.62266        0.74764        0.20860
C          0.46379        0.01536        0.19324
C         -0.01808       -1.05894        1.17208
C         -1.38573       -0.86005        0.46639
O         -1.17781       -1.38779       -0.87577
C         -0.35552       -0.24292       -1.09915
C         -0.93229        0.58661        0.00847
C         -1.50741        1.96002        0.11371
H          2.62749       -0.36589       -1.24369
H          3.60715        0.71346       -0.20811
H          2.98027       -0.82376        0.44372
H          0.40336       -2.06815        1.13259
H         -0.03246       -0.67979        2.19741
H         -2.33043       -1.15812        0.91636
H         -0.02874        0.00439       -2.10125
H         -2.47601        2.03098       -0.39282
H         -1.64854        2.25814        1.15880
H         -0.83015        2.68692       -0.34599
