19
dsC7O2H10nsd_0557.xyz
C         -2.26388       -0.29419       -0.58638
O         -1.97047       -0.60078        0.80315
C         -1.04057        0.47178        0.86345
C         -1.23175        0.83223       -0.61704
C          0.07933        0.30963       -0.12970
C          1.29793        1.22562       -0.00104
C          2.47820        0.21753        0.05132
C          1.77041       -1.14929        0.12866
O          0.52514       -0.95611       -0.53279
H         -2.08895       -1.14890       -1.24671
H         -3.29530        0.06071       -0.68578
H         -1.00127        1.06640        1.77160
H         -1.34665        1.78315       -1.12292
H          1.38780        1.89594       -0.86082
H          1.24164        1.84917        0.89597
H          3.07633        0.28399       -0.86084
H          3.14478        0.38736        0.89998
H          2.30129       -1.95466       -0.38385
H          1.60497       -1.44787        1.17491
