18
dsC7O2H10nsd_5524.xyz
O          2.85671       -0.94827       -0.20150
C          2.14806        0.28064       -0.16744
C          0.66468        0.09291       -0.46069
C         -0.27820        1.32882       -0.29818
C         -0.33775        0.99690        1.22145
C         -0.22942       -0.47812        0.70846
C         -1.55667       -0.59486       -0.03085
O         -2.35051       -1.49533       -0.03274
C         -1.62008        0.75254       -0.79127
H          2.51707       -1.50555        0.50605
H          2.31649        0.81012        0.78119
H          2.59039        0.89611       -0.95910
H          0.58039       -0.44553       -1.41152
H          0.00991        2.31615       -0.65943
H          0.54261        1.31656        1.77801
H         -1.24047        1.27678        1.77184
H          0.05412       -1.31984        1.33896
H         -1.67004        0.59311       -1.87265
