19
dsC7O2H10nsd_3788.xyz
C          3.63236        0.10239       -0.17035
C          2.27996       -0.13605        0.44861
O          1.54296       -1.27138       -0.02374
C          1.02306        0.03344       -0.29572
C         -0.25967        0.39746        0.37086
C         -1.00821        1.62215       -0.03987
C         -1.56242        0.25690       -0.41696
C         -2.75575       -0.23890        0.30276
O         -3.61925       -0.92782       -0.17875
H          3.58904       -0.01876       -1.25606
H          3.98727        1.11330        0.05709
H          4.36578       -0.60858        0.22387
H          2.23282       -0.00932        1.53235
H          1.09421        0.33208       -1.34444
H         -0.31373        0.11713        1.41933
H         -1.52954        2.18547        0.72684
H         -0.61671        2.22455       -0.85219
H         -1.49205       -0.05210       -1.45420
H         -2.80283        0.08556        1.37128
