19
dsC7O2H10nsd_1717.xyz
O          0.38674       -0.38380        1.50909
C         -0.03404       -0.09449        0.17321
C         -0.92518        1.18459        0.08842
C         -2.38300        0.69497       -0.10269
C         -2.21798       -0.76272       -0.45701
C         -0.95814       -1.18046       -0.34353
C          1.22394        0.03664       -0.66689
C          2.52218       -0.51185       -0.26203
O          2.25342        0.89248       -0.17993
H         -0.39293       -0.66708        1.99714
H         -0.77889        1.79212        0.98331
H         -0.62069        1.79291       -0.76793
H         -2.99484        0.81118        0.80197
H         -2.90545        1.25205       -0.88874
H         -3.05547       -1.38719       -0.75120
H         -0.60104       -2.18887       -0.52169
H          1.01624        0.14860       -1.73278
H          2.60230       -1.01910        0.69489
H          3.24276       -0.80404       -1.02512
