19
dsC7O2H10nsd_5481.xyz
C         -2.91354       -0.33275       -0.64014
C         -1.92892       -0.56689        0.51221
C         -0.48756       -0.62398        0.04227
C          0.58921       -0.34102        1.08007
C          2.02344       -0.49250        0.48187
O          1.93950       -0.89335       -0.89830
C          1.73728        0.48502       -0.56081
C          0.27908        0.67559        0.00290
O         -0.27733        1.92776        0.18100
H         -2.73267        0.63129       -1.12849
H         -2.82180       -1.11140       -1.40490
H         -3.94788       -0.33339       -0.28282
H         -2.04329        0.22721        1.25803
H         -2.17463       -1.50970        1.01648
H         -0.27664       -1.37256       -0.71482
H          0.37591       -0.29303        2.13971
H          2.93518       -0.73234        1.01502
H          2.35076        1.23473       -1.04755
H         -0.75619        2.16312       -0.62254
