19
dsC7O2H10nsd_2231.xyz
C         -2.00212       -1.08901       -0.18928
C         -0.83974       -0.14701       -0.07101
O         -1.18333        1.25858        0.03078
C          0.18897        1.43836        0.48532
C          0.97181        1.16829       -0.81241
C          0.37319       -0.24438       -1.07753
C          1.26936       -1.25798       -0.36362
O          1.22354       -0.84163        1.01908
C          0.11192        0.01126        1.13314
H         -2.55610       -0.89767       -1.11456
H         -1.65813       -2.12773       -0.20772
H         -2.68973       -0.96792        0.65231
H          0.35526        2.36128        1.04004
H          0.70316        1.90274       -1.57405
H          2.05742        1.15390       -0.68563
H          0.13357       -0.48706       -2.11259
H          0.90247       -2.29136       -0.45249
H          2.30906       -1.23210       -0.70470
H         -0.31901       -0.02686        2.13284
