19
dsC7O2H10nsd_1319.xyz
C          3.17217        1.36189        0.01600
C          2.44440        0.05083        0.28634
C          3.05714       -1.12180       -0.48387
O          1.07990        0.27532       -0.07861
C          0.17502       -0.67989        0.42630
C         -1.19281       -0.25780        0.16539
C         -2.34130        0.05613       -0.03526
C         -3.69334        0.47332       -0.29823
O         -4.67941       -0.13655        0.04718
H          2.70687        2.17881        0.57309
H          4.22218        1.28689        0.31307
H          3.13021        1.60573       -1.05010
H          2.48516       -0.16898        1.36705
H          2.54881       -2.06687       -0.27094
H          3.00180       -0.93595       -1.56114
H          4.10869       -1.24722       -0.20765
H          0.32487       -1.67345       -0.02732
H          0.30731       -0.81205        1.51492
H         -3.76751        1.42688       -0.85962
