19
dsC7O2H10nsd_1588.xyz
C         -0.92510       -0.80112        1.46180
C         -0.67740       -0.40325       -0.00511
C         -1.93231       -0.60680       -0.84954
O          0.32647       -1.23143       -0.61129
C          1.64026       -1.09386       -0.12520
C          2.08370        0.33106       -0.00797
C          1.20484        1.33825       -0.01963
C         -0.24668        1.07753       -0.03906
O         -1.06464        1.97545       -0.00630
H         -0.04034       -0.64106        2.08587
H         -1.73791       -0.19965        1.87682
H         -1.20178       -1.85809        1.51413
H         -2.71411        0.08094       -0.52442
H         -1.71128       -0.41285       -1.90223
H         -2.28527       -1.63703       -0.75347
H          1.77584       -1.59820        0.84999
H          2.28225       -1.62869       -0.83548
H          3.15137        0.51156        0.09558
H          1.50282        2.38003        0.04225
