19
dsC7O2H10nsd_1960.xyz
O         -2.45113       -0.34499       -0.86582
C         -1.36080       -0.03438       -0.05255
C         -1.04624       -0.90879        1.12999
C         -0.14148       -0.91855       -0.09609
C          1.06086       -0.02198       -0.04872
C          2.22620       -0.22191       -0.91873
O          2.29453       -0.51002        0.48287
C          0.58425        1.35618        0.41667
C         -0.89911        1.42038       -0.00795
H         -3.25479       -0.10916       -0.38958
H         -0.68750       -0.47877        2.05967
H         -1.67333       -1.78577        1.24549
H         -0.12157       -1.81133       -0.70893
H          2.27163       -1.08964       -1.57678
H          2.80892        0.63772       -1.24955
H          0.68361        1.40939        1.50612
H          1.18404        2.16925        0.00176
H         -1.50302        2.04520        0.65985
H         -0.99734        1.82751       -1.02020
