19
dsC7O2H10nsd_3898.xyz
C          2.88788       -0.79967       -0.37713
C          1.84734       -0.02571        0.42077
C          0.51860       -0.81890        0.69858
C         -0.23448        0.24507       -0.09020
C         -0.04332        1.61368        0.47465
C          1.03958        1.00328       -0.39327
O         -1.27698       -0.03237       -0.99662
C         -2.44746       -0.40829       -0.44577
O         -2.67060       -0.53538        0.72445
H          3.72229       -0.15332       -0.67103
H          3.29521       -1.62948        0.21024
H          2.45088       -1.21725       -1.29131
H          2.30358        0.39930        1.32226
H          0.52309       -1.78583        0.18864
H          0.20512       -0.96002        1.73568
H         -0.62978        2.38512       -0.01389
H          0.10768        1.76241        1.54160
H          1.36380        1.47362       -1.31402
H         -3.17004       -0.58936       -1.25660
