19
dsC7O2H10nsd_1232.xyz
C          3.28912       -0.92230        0.36085
C          2.42580        0.08622       -0.41142
O          2.75075        1.43011       -0.06219
C          0.99568       -0.19392       -0.24744
C         -0.17757       -0.41633       -0.08020
C         -1.59076       -0.68516        0.11727
C         -2.37371        0.23822        1.09321
C         -3.26551        0.53251       -0.12739
O         -2.43150       -0.26879       -0.99159
H          3.06107       -0.88156        1.43101
H          3.10316       -1.94228        0.01240
H          4.34523       -0.68037        0.21681
H          2.67342        0.01571       -1.47765
H          2.42005        1.58335        0.82986
H         -1.73734       -1.75455        0.32264
H         -2.84861       -0.26815        1.93401
H         -1.79472        1.08788        1.45453
H         -4.28702        0.13694       -0.06687
H         -3.30751        1.57704       -0.45576
