19
dsC7O2H10nsd_4872.xyz
C          4.07720       -0.46470       -0.06898
C          2.70829        0.02173       -0.15543
C          1.57091        0.41219       -0.22130
C          0.22362        0.88984       -0.32821
C         -0.60724        1.18809        0.92624
C         -0.94752        0.01085        0.04329
O         -0.64195       -1.26697        0.50623
C         -2.20215        0.03879       -0.79799
O         -3.29496       -0.51589       -0.06698
H          4.63825        0.04839        0.72041
H          4.10285       -1.53805        0.15017
H          4.61486       -0.30765       -1.01089
H          0.04350        1.55853       -1.16726
H         -0.13661        0.95611        1.87380
H         -1.22978        2.07750        0.91473
H         -1.48740       -1.64780        0.77938
H         -2.41973        1.05752       -1.14829
H         -2.07849       -0.60807       -1.67218
H         -3.49073        0.08568        0.66034
