19
dsC7O2H10nsd_0085.xyz
C          3.64128        0.58760       -0.27966
C          2.68439       -0.07301        0.02219
C          1.52508       -0.88476        0.36904
C          0.21295       -0.35734       -0.22351
C         -0.95415       -1.31959        0.01307
O         -2.17114       -0.76204       -0.45168
C         -2.43432        0.48807        0.16740
C         -1.27953        1.45249       -0.07464
O         -0.06329        0.89142        0.39508
H          4.48534        1.17739       -0.53791
H          1.67875       -1.91444        0.02122
H          1.41406       -0.93069        1.45947
H          0.32937       -0.21088       -1.30985
H         -0.80850       -2.25432       -0.53704
H         -1.02223       -1.54973        1.09038
H         -3.36401        0.86679       -0.26784
H         -2.57986        0.35305        1.25186
H         -1.20536        1.67711       -1.15089
H         -1.42627        2.38994        0.47021
