19
dsC7O2H10nsd_4782.xyz
C         -3.54370       -0.34963       -0.30810
C         -2.19068       -0.91971        0.12358
C         -1.02941        0.03159       -0.16324
O         -1.24578        1.21594        0.58408
C          0.32404       -0.60221        0.19652
C          1.50589        0.30532       -0.08990
O          1.39319        1.48987       -0.34724
C          2.81232       -0.32462       -0.03384
C          3.88341       -0.87140        0.01888
H         -4.35751       -1.03716       -0.05901
H         -3.73158        0.60465        0.18915
H         -3.57158       -0.17650       -1.38983
H         -2.20099       -1.13103        1.20044
H         -2.00015       -1.87217       -0.38643
H         -1.01952        0.26020       -1.24301
H         -0.53543        1.82038        0.33177
H          0.35026       -0.84182        1.26935
H          0.47804       -1.55133       -0.33168
H          4.83800       -1.33778        0.06122
