19
dsC7O2H10nsd_1066.xyz
C          2.43273        0.42827        0.62340
C          1.34294       -0.32278       -0.11462
O          1.54274       -1.38998       -0.64787
C         -0.03074        0.35897       -0.16187
O          0.25405        1.68740       -0.53604
C         -1.23162       -0.40815       -0.80569
C         -1.22557       -1.33973        0.44459
C         -1.04803        0.09685        1.01469
C         -2.17635        0.51896        0.02238
H          3.30962       -0.21215        0.72500
H          2.69145        1.33342        0.06667
H          2.08312        0.75639        1.60791
H         -0.54497        2.21821       -0.46991
H         -1.33420       -0.70176       -1.84967
H         -2.18486       -1.80670        0.67649
H         -0.40144       -2.04137        0.54373
H         -0.93698        0.39446        2.05892
H         -3.16782        0.11512        0.24004
H         -2.26838        1.57079       -0.26523
