19
dsC7O2H10nsd_1162.xyz
C         -3.25041       -0.53314        0.24608
C         -1.97641        0.20124       -0.09483
O         -1.88942        1.36393       -0.39035
O         -0.91759       -0.64595       -0.03995
C          0.34335       -0.08294       -0.35588
C          1.47275       -1.00210       -0.02309
C          2.78969       -0.39699       -0.51959
C          2.51167        0.88381        0.34113
C          1.20198        0.25534        0.82576
H         -3.42345       -1.33521       -0.47729
H         -3.16573       -0.99835        1.23207
H         -4.08606        0.16528        0.23157
H          0.32593        0.53706       -1.24868
H          1.28134       -2.04324        0.20594
H          3.66669       -0.94512       -0.16985
H          2.87557       -0.25670       -1.60227
H          3.24592        1.01195        1.13889
H          2.41413        1.83108       -0.19912
H          0.76597        0.33808        1.81363
