19
dsC7O2H10nsd_0891.xyz
O         -2.97379       -0.71958       -0.05703
C         -2.08956       -0.02328        0.36946
C         -1.18928        0.85367       -0.47963
C          0.28800        0.61792       -0.19493
C          1.25261        1.76785       -0.37243
C          0.92266        1.26814        1.01164
C          0.76519       -0.74840       -0.60448
C          0.89338       -1.87023        0.33756
O          2.04498       -1.16122       -0.13382
H         -1.87084        0.02284        1.46165
H         -1.43426        0.68103       -1.53328
H         -1.43593        1.89860       -0.24619
H          2.23749        1.53362       -0.76025
H          0.85313        2.72468       -0.69085
H          1.69328        0.70948        1.52968
H          0.29737        1.88524        1.64769
H          0.57950       -0.99434       -1.65261
H          0.65514       -1.71537        1.38838
H          0.79762       -2.89346       -0.02053
