19
dsC7O2H10nsd_3864.xyz
C         -1.89863       -1.63596       -0.28373
C         -1.69624       -0.24219        0.27303
O         -0.47004       -0.18013        1.07415
C          0.13797        0.67255        0.10179
C         -0.59147        1.97927        0.03072
C         -1.13681        0.77860       -0.71459
C          1.54383        0.41247       -0.27318
C          2.38373       -0.48839        0.52828
O          1.84891       -0.91262       -0.72660
H         -2.07731       -2.34614        0.52905
H         -2.76223       -1.65875       -0.95783
H         -1.00599       -1.95067       -0.83184
H         -2.55816        0.08531        0.86808
H         -1.08708        2.35258        0.92283
H         -0.14766        2.74058       -0.60415
H         -1.27587        0.75828       -1.78731
H          2.02175        1.20522       -0.84850
H          3.46190       -0.33642        0.55435
H          1.94541       -0.96615        1.40101
