19
dsC7O2H10nsd_1983.xyz
O          2.09555       -0.65865       -1.04696
C          1.23081       -0.20360       -0.05077
C          1.60812        1.02066        0.74620
C          0.48314        1.08754       -0.27181
C         -0.92443        0.95320        0.26351
C         -1.99421        0.51214       -0.75496
O         -1.96112       -0.84705       -0.27502
C         -1.04420       -0.50909        0.79256
C          0.31431       -1.21489        0.64205
H          2.84898       -1.07977       -0.61910
H          1.36702        1.06336        1.80529
H          2.53425        1.51169        0.46813
H          0.65862        1.66229       -1.17490
H         -1.21815        1.76049        0.93822
H         -2.98248        0.96843       -0.61382
H         -1.71402        0.58404       -1.81316
H         -1.51178       -0.66007        1.77197
H          0.71442       -1.54616        1.60766
H          0.18647       -2.09447        0.00497
