19
dsC7O2H10nsd_0727.xyz
O         -2.10175       -1.27163       -0.22429
C         -1.33903       -0.37912        0.01315
O         -1.50791        0.86982       -0.49071
C         -0.48377        1.77083       -0.04558
C          0.60880        0.93419        0.65942
C          1.87952        0.65126       -0.18651
C          1.66025       -0.74285       -0.80415
C          0.90709       -1.50409        0.29827
C         -0.06669       -0.44584        0.85742
H         -0.10921        2.30551       -0.92339
H         -0.94574        2.49861        0.62992
H          0.87523        1.41186        1.60381
H          2.06808        1.43004       -0.93184
H          2.75275        0.62474        0.47465
H          1.03254       -0.66910       -1.70065
H          2.59360       -1.22755       -1.10166
H          0.37403       -2.38956       -0.05556
H          1.60185       -1.81787        1.08497
H         -0.36283       -0.65849        1.88773
