19
dsC7O2H10nsd_5814.xyz
C          2.44947       -0.48290       -0.68482
O          1.14688       -0.98309       -0.44998
C          0.50307       -0.39471        0.67180
C         -0.74160       -1.23631        0.97691
C         -1.86352       -0.98759        0.00225
C         -1.92239        0.06741       -0.80739
C         -0.86953        1.14886       -0.84418
C          0.08802        1.04377        0.33220
O          0.48926        2.00000        0.95159
H          3.10478       -0.64758        0.18335
H          2.84869       -1.02912       -1.54236
H          2.45257        0.59212       -0.91543
H          1.18228       -0.36332        1.53536
H         -0.44318       -2.29132        0.96164
H         -1.07720       -1.02519        2.00168
H         -2.66298       -1.72361       -0.01559
H         -2.76072        0.18583       -1.48869
H         -0.28461        1.06473       -1.77245
H         -1.30979        2.15095       -0.84092
