19
dsC7O2H10nsd_2368.xyz
C          0.01704        1.97166       -0.77652
C         -0.44120        0.66039       -0.23099
O         -1.81225        0.31505       -0.42808
C         -1.85659       -0.29643        0.89383
C         -0.36870       -0.05464        1.08204
C          0.39391       -0.64795       -0.11031
C         -0.02847       -1.91234       -0.82944
C          1.85682       -0.41031       -0.02366
O          2.39597        0.41029        0.68660
H          1.06262        2.15004       -0.52316
H         -0.09543        1.98770       -1.86616
H         -0.58930        2.78297       -0.36221
H         -2.48104        0.30344        1.56382
H         -2.22118       -1.32859        0.86726
H          0.15583        0.20945        1.99004
H          0.62264       -2.09460       -1.69124
H          0.02901       -2.79190       -0.17886
H         -1.05062       -1.82197       -1.20237
H          2.46083       -1.06148       -0.69501
