19
dsC7O2H10nsd_2344.xyz
C          2.22812       -1.19096        0.42093
C          1.08552       -0.33534       -0.05535
C         -0.07679       -0.97462       -0.87187
C         -1.06744       -0.22250        0.03225
C         -2.40597       -0.61704        0.47147
O         -2.20778        0.47884       -0.43311
C          0.05133        0.43448        0.83937
C          0.62881        1.68937        0.16602
O          1.52205        0.90588       -0.66098
H          2.83743       -1.51147       -0.43173
H          2.87252       -0.63385        1.10712
H          1.86044       -2.08661        0.93184
H         -0.08454       -0.67276       -1.92130
H         -0.14556       -2.06425       -0.80103
H         -2.87863       -1.49879        0.03940
H         -2.75524       -0.34322        1.46676
H          0.00741        0.39824        1.92773
H         -0.07853        2.28488       -0.42176
H          1.18915        2.34973        0.83874
