19
dsC7O2H10nsd_1034.xyz
C         -4.09360        0.00341        0.23233
C         -2.66100       -0.02264       -0.02175
C         -1.47695       -0.06153       -0.23378
C         -0.04365       -0.04926       -0.48761
C          0.61706        1.23363        0.04923
O          2.01507        1.20281       -0.16996
C          2.60455        0.06406        0.43949
C          1.95965       -1.21135       -0.08910
O          0.55669       -1.19086        0.13010
H         -4.39127       -0.83223        0.87504
H         -4.39325        0.93028        0.73345
H         -4.66557       -0.07338       -0.69874
H          0.14596       -0.09297       -1.57455
H          0.22897        2.11138       -0.47366
H          0.38838        1.32399        1.12265
H          3.67213        0.09426        0.20152
H          2.48336        0.11211        1.53396
H          2.17694       -1.31342       -1.16521
H          2.34392       -2.09361        0.43158
