19
dsC7O2H10nsd_4775.xyz
C         -1.35781        2.09951        0.19477
O         -1.88450        0.91034       -0.35538
C         -1.34258       -0.28331        0.18125
C         -2.23442       -1.43187       -0.27558
C          0.08755       -0.49100       -0.29186
O          0.81277       -1.54151        0.33990
C          1.25775       -0.19235        0.56311
C          2.52718        0.19137        0.00796
C          3.58871        0.53464       -0.43928
H         -0.29578        2.24322       -0.04767
H         -1.92813        2.92759       -0.23273
H         -1.46958        2.12166        1.29013
H         -1.33736       -0.23664        1.28378
H         -1.85054       -2.38122        0.10629
H         -3.25371       -1.28400        0.08943
H         -2.26399       -1.47732       -1.36868
H          0.22498       -0.42789       -1.37253
H          1.06250        0.17033        1.57225
H          4.52705        0.83169       -0.83866
