19
dsC7O2H10nsd_3397.xyz
O         -2.61577        0.11965       -0.24715
C         -1.23907        0.37607       -0.44719
C         -0.41061        0.64410        0.84538
C          0.84736        1.45478        0.49775
C          1.51171        0.82121       -0.75450
C          1.15094       -0.66160       -0.74002
O          1.35909       -1.14615        0.62477
C         -0.03085       -0.89837        0.86896
C         -0.39843       -0.90339       -0.63134
H         -2.70744       -0.58024        0.40842
H         -1.20126        1.14487       -1.22400
H         -0.96318        1.04896        1.69621
H          0.59098        2.50422        0.32240
H          1.54379        1.42080        1.33966
H          1.16029        1.28512       -1.68302
H          2.59863        0.94301       -0.72364
H          1.69626       -1.26674       -1.46820
H         -0.44893       -1.52902        1.65636
H         -0.80197       -1.75584       -1.17934
