19
dsC7O2H10nsd_3839.xyz
C          2.64534       -0.43862       -0.54710
C          1.29536       -0.15952        0.06876
C          1.14627        0.87451        1.13962
C          0.51813        1.12005       -0.23090
C         -0.92780        0.76714       -0.30320
O         -1.88782        1.50144       -0.33634
C         -1.05628       -0.76106       -0.33755
O         -2.18958       -1.21991        0.34992
C          0.28233       -1.31835        0.17978
H          2.54348       -0.84553       -1.55939
H          3.24996        0.47169       -0.61048
H          3.20507       -1.16812        0.04928
H          0.49617        0.67633        1.98646
H          1.99959        1.50334        1.37106
H          0.90051        1.94067       -0.82636
H         -1.12837       -0.99599       -1.41780
H         -2.84079       -0.50651        0.27883
H          0.16415       -1.65565        1.21400
H          0.60917       -2.17728       -0.41078
