19
dsC7O2H10nsd_4540.xyz
C         -2.55276       -0.77429        0.28194
C         -1.18201       -0.59488       -0.37398
C         -0.04315       -1.08405        0.54122
C          1.35757       -0.73943        0.04693
O          2.12293       -1.59618       -0.34706
C          1.78722        0.67785        0.15652
C          0.96776        1.73139        0.23256
C         -0.53679        1.70003        0.09897
O         -1.00352        0.74362       -0.83129
H         -2.63257       -0.18762        1.20353
H         -3.33994       -0.44764       -0.40251
H         -2.72635       -1.82428        0.53800
H         -1.15003       -1.18619       -1.29619
H         -0.17356       -0.65370        1.54275
H         -0.10378       -2.17118        0.63291
H          2.86459        0.81672        0.15401
H          1.40130        2.72352        0.34227
H         -1.00912        1.58045        1.08829
H         -0.87295        2.67069       -0.28117
