19
dsC7O2H10nsd_0481.xyz
C         -2.59944       -0.58490        0.03131
C         -1.17601       -1.10887       -0.33591
C         -0.63453        0.28793       -0.02931
C         -2.04828        0.87311        0.08788
C          0.61098        0.93986       -0.56994
O          1.55861        0.05150       -1.12833
C          2.30699       -0.43559       -0.02850
O          1.43539       -0.46859        1.08949
C          0.52820        0.59376        0.88515
H         -3.38540       -0.77048       -0.70335
H         -2.94450       -0.94341        1.00359
H         -0.77497       -1.91445        0.28256
H         -1.06728       -1.38788       -1.38730
H         -2.26573        1.44237        0.99627
H         -2.33557        1.47957       -0.77682
H          0.62068        1.94864       -0.97181
H          2.64760       -1.45099       -0.24782
H          3.16529        0.22763        0.17608
H          0.46044        1.31391        1.69519
