19
dsC7O2H10nsd_0683.xyz
O          3.11434       -0.89790       -0.03539
C          2.04682       -0.34388       -0.01855
C          1.80849        1.16260       -0.17993
C          0.33373        1.37229        0.18906
C         -0.35484        0.04241       -0.21230
C          0.68523       -1.02734        0.16431
C         -1.70066       -0.15604        0.43483
C         -2.82015       -0.81888       -0.24508
O         -2.78855        0.60241       -0.09816
H          2.52491        1.73741        0.41149
H          1.99425        1.40965       -1.23368
H          0.23400        1.51935        1.27212
H         -0.12523        2.23445       -0.29865
H         -0.49899        0.03970       -1.30011
H          0.59694       -1.29702        1.22691
H          0.62822       -1.95687       -0.40632
H         -1.68127       -0.19073        1.52757
H         -2.68805       -1.18542       -1.26257
H         -3.58278       -1.33361        0.33750
