19
dsC7O2H10nsd_1594.xyz
O         -0.10519        1.82604        0.01959
C         -0.10373        0.43790        0.16416
C          1.27560       -0.00357        0.58281
C          2.46309        0.39939       -0.25459
C          2.06723       -1.04854       -0.17043
C         -1.38780       -0.15032        0.84856
C         -1.19053       -1.49255        0.12177
C         -0.96275       -0.35353       -0.89311
O         -2.16318        0.33228       -0.33173
H         -1.02086        2.04386       -0.21381
H          1.43072        0.02876        1.65779
H          2.25777        0.93100       -1.17643
H          3.36020        0.72654        0.25818
H          1.61806       -1.50034       -1.04839
H          2.68639       -1.72819        0.40503
H         -1.80582        0.06025        1.83423
H         -0.34938       -2.12395        0.40522
H         -2.11396       -2.04826       -0.03894
H         -0.88281       -0.38899       -1.98068
