19
dsC7O2H10nsd_5726.xyz
O         -2.98382       -0.20825       -0.68812
C         -1.98219       -0.82149        0.11003
C         -1.04722        0.26883        0.59740
C          0.25486       -0.28271        1.26531
C          1.08691        0.32440        0.13532
C          0.83228        1.81406        0.02045
C         -0.21047        0.90865       -0.51962
C          2.18111       -0.33974       -0.57254
O          2.65251       -1.41026       -0.26260
H         -3.55974       -0.89654       -1.03338
H         -2.41801       -1.34336        0.97712
H         -1.40907       -1.56402       -0.46886
H         -1.61792        0.99075        1.19175
H          0.48253        0.08048        2.27128
H          0.30327       -1.37397        1.26608
H          0.66348        2.37700        0.93553
H          1.43766        2.33191       -0.71778
H         -0.47556        0.89508       -1.56956
H          2.55222        0.21879       -1.46448
