19
dsC7O2H10nsd_2982.xyz
C         -0.41036        2.18568       -0.02632
C          0.03907        0.88927        0.64048
C          1.47650        0.44668        0.25817
C          1.55821       -1.02597        0.71845
C          0.56255       -1.12225       -0.46067
O          1.29644       -0.03587       -1.11392
C         -0.65418       -0.37719        0.07594
C         -1.91029       -0.97763        0.52026
O         -1.82014       -0.26934       -0.72565
H         -1.48604        2.33668        0.09728
H          0.10975        3.04651        0.40640
H         -0.19902        2.14922       -1.09790
H         -0.07504        0.95456        1.72826
H          2.28959        1.16357        0.37332
H          2.51850       -1.48171        0.47670
H          1.22338       -1.29256        1.72467
H          0.40697       -2.00614       -1.07799
H         -2.06820       -2.05258        0.43316
H         -2.49931       -0.48730        1.29472
