19
dsC7O2H10nsd_1626.xyz
C          1.84189        1.42030       -0.04764
C          1.10637        0.10663        0.09107
C          1.70070       -1.02224        0.82582
O          1.68747       -1.00466       -0.60216
C         -0.37781        0.18563       -0.00684
C         -1.40410        0.66526        1.04043
C         -2.44905       -0.30423        0.38025
C         -1.36397       -0.71188       -0.62715
O         -0.94271        0.48856       -1.29177
H          1.53468        2.12296        0.73442
H          2.92108        1.26579        0.02342
H          1.61487        1.87225       -1.01781
H          2.67958       -0.90108        1.28829
H          1.05646       -1.76868        1.28875
H         -1.15034        0.37477        2.06276
H         -1.63128        1.73306        1.00754
H         -2.74559       -1.11559        1.04909
H         -3.33867        0.15207       -0.05920
H         -1.22304       -1.64367       -1.16154
