19
dsC7O2H10nsd_4324.xyz
O         -0.18614        2.03509        0.08842
C         -0.62725        0.80536       -0.44964
C         -2.04033        0.46476        0.06180
C         -2.01653       -1.04351        0.10830
C         -0.77731       -1.52868        0.01195
C          0.24418       -0.43740       -0.09070
C          1.24326       -0.20364        1.07501
O          2.31923        0.02757        0.13622
C          1.53803       -0.56547       -0.92452
H          0.72916        2.16812       -0.18520
H         -0.66083        0.86187       -1.55034
H         -2.18948        0.89766        1.06001
H         -2.82833        0.87116       -0.58035
H         -2.91274       -1.64103        0.23395
H         -0.50598       -2.57851        0.05118
H          1.05696        0.66067        1.71739
H          1.42306       -1.09901        1.68540
H          1.59384        0.01133       -1.85658
H          1.84522       -1.60215       -1.12573
