19
dsC7O2H10nsd_0518.xyz
C          1.86970       -0.79998        0.19457
O          1.99259        0.62083       -0.10746
C          0.65802        0.60259       -0.69033
C         -0.44721        1.60492       -0.30699
C         -1.38263        0.63305        0.46376
C         -0.38000       -0.11139        1.34126
C          0.34534       -0.68021        0.10043
C         -0.80797       -1.40925       -0.56180
O         -1.85303       -0.40520       -0.43681
H          2.32905       -1.41231       -0.59340
H          2.30685       -1.05564        1.16447
H          0.73769        0.45689       -1.77546
H         -0.08664        2.41058        0.34001
H         -0.93059        2.04374       -1.18240
H         -2.25837        1.08630        0.92912
H          0.24785        0.54480        1.94566
H         -0.83107       -0.88541        1.96742
H         -0.64451       -1.61623       -1.62518
H         -1.11831       -2.33610       -0.06145
