19
dsC7O2H10nsd_0095.xyz
C         -4.67190        0.28197       -0.27719
C         -3.57965       -0.16890       -0.05835
C         -2.24137       -0.68235        0.19908
C         -1.16206        0.38566       -0.00758
O          0.08402       -0.21165        0.27005
C          1.17307        0.67281        0.12285
C          2.43948       -0.06989        0.44628
C          3.73039        0.35164       -0.10843
O          3.05448       -0.79694       -0.61752
H         -5.64314        0.66602       -0.46796
H         -2.16827       -1.05948        1.22599
H         -2.02398       -1.53057       -0.46057
H         -1.19667        0.76151       -1.04227
H         -1.34540        1.24295        0.66007
H          1.23148        1.06271       -0.90602
H          1.06382        1.53484        0.80458
H          2.42656       -0.59613        1.40109
H          3.77485        1.20564       -0.78390
H          4.64509        0.15558        0.44880
