19
dsC7O2H10nsd_0774.xyz
O         -2.03098        1.36461       -0.37320
C         -1.05562        0.77644        0.02582
C          0.17050        1.49672        0.56259
C          1.41869        1.26726       -0.32196
C          2.23245       -0.00021       -0.00021
C          1.41846       -1.26737        0.32207
C          0.17019       -1.49688       -0.56234
C         -1.05585       -0.77631       -0.02576
O         -2.03147       -1.36421        0.37301
H         -0.09164        2.55712        0.59454
H          0.37015        1.16863        1.59142
H          1.10608        1.25951       -1.37320
H          2.07728        2.13552       -0.22173
H          2.89181       -0.20367       -0.85227
H          2.89244        0.20300        0.85141
H          2.07687       -2.13581        0.22213
H          1.10593       -1.25917        1.37334
H          0.36983       -1.16900       -1.59124
H         -0.09208       -2.55725       -0.59411
