19
dsC7O2H10nsd_2555.xyz
C         -2.84145       -0.13704        0.29389
C         -1.36978       -0.10184       -0.00041
C         -0.61108       -1.19381       -0.12257
C          0.86699       -1.05758       -0.43328
O          1.61424       -0.81627        0.75621
C          1.45128        0.58189        1.00553
C          0.79493        1.12701       -0.29662
C         -0.72933        1.26195       -0.18186
O          1.09241        0.08616       -1.23030
H         -3.41158        0.36747       -0.49711
H         -3.21111       -1.16216        0.37972
H         -3.07334        0.39047        1.22798
H         -1.01462       -2.19083        0.02621
H          1.28836       -1.93162       -0.93389
H          0.82013        0.75315        1.88590
H          2.43901        1.01729        1.18592
H          1.26021        2.04791       -0.65342
H         -0.98467        1.91631        0.66284
H         -1.13503        1.74946       -1.07949
