19
dsC7O2H10nsd_1389.xyz
C          0.79163        2.38096        0.04463
C          0.82699        0.86767        0.26294
C          2.08364        0.23383       -0.35863
C          2.23400       -1.17915       -0.03594
C          2.36178       -2.33913        0.25010
O         -0.28436        0.22160       -0.34373
C         -1.49511        0.29900        0.36184
C         -2.46556       -0.69156       -0.26163
O         -3.63648       -0.73474        0.00589
H          1.65194        2.86056        0.52171
H          0.81095        2.61320       -1.02491
H         -0.11268        2.82137        0.47374
H          0.82254        0.65052        1.34275
H          2.02879        0.36788       -1.44625
H          2.96492        0.78908       -0.01570
H          2.47542       -3.36648        0.49279
H         -1.36491        0.02471        1.42349
H         -1.94982        1.30099        0.33932
H         -1.98470       -1.38645       -0.98417
