19
dsC7O2H10nsd_1073.xyz
C         -2.50194        0.55244       -0.48105
C         -1.38617       -0.37669       -0.05308
O         -1.52687       -1.57642        0.00360
C         -0.03324        0.27821        0.26753
O         -0.29025        1.59039        0.71742
C          0.89965       -0.65752        1.11559
C          1.79389       -0.84828       -0.11226
C          2.33406        0.47779       -0.55209
C          0.92107        0.10342       -0.93018
H         -2.16307        1.23270       -1.26866
H         -3.35289       -0.03784       -0.82235
H         -2.79394        1.18577        0.36208
H          0.52237        2.09906        0.63117
H          1.36767       -0.17774        1.98053
H          0.37088       -1.56026        1.42093
H          2.22709       -1.78670       -0.43168
H          2.54706        1.25479        0.18134
H          3.03469        0.46359       -1.38082
H          0.61319        0.03856       -1.96739
