19
dsC7O2H10nsd_6067.xyz
C          3.42578       -1.82067        0.03618
C          2.47577       -0.72158        0.02881
C          1.69329        0.19768        0.01392
C          0.75894        1.30803        0.00168
O          1.06875        2.39521       -0.43900
C         -0.62069        1.01795        0.57290
C         -1.38672       -0.03857       -0.23958
C         -2.75174       -0.34872        0.36178
O         -3.36637       -1.33685       -0.44921
H          3.38960       -2.36784        0.98422
H          3.19719       -2.53155       -0.76556
H          4.44957       -1.46286       -0.11366
H         -0.49707        0.66449        1.60551
H         -1.16312        1.96770        0.59733
H         -1.52661        0.30886       -1.26933
H         -0.80689       -0.96605       -0.29142
H         -2.62697       -0.70243        1.39905
H         -3.35852        0.57052        0.40309
H         -4.24396       -1.51246       -0.09775
