19
dsC7O2H10nsd_3719.xyz
C         -2.72331       -0.71513       -0.56255
C         -1.88155        0.42703       -0.03917
C         -1.21667        0.34647        1.33079
C         -0.39505        0.31272        0.08844
O          0.48635        1.39005       -0.28686
C          1.43730        0.45826       -0.83380
C          2.43540       -0.08844        0.20074
O          1.53917       -1.17795        0.54670
C          0.56745       -0.74709       -0.42466
H         -2.79914       -0.69139       -1.65528
H         -2.29903       -1.68383       -0.27778
H         -3.73928       -0.67184       -0.15535
H         -2.21928        1.42155       -0.32097
H         -1.17051        1.25277        1.92485
H         -1.30926       -0.57134        1.90361
H          1.77849        0.73177       -1.83269
H          3.37674       -0.46975       -0.21423
H          2.63725        0.58208        1.04251
H          0.19839       -1.55974       -1.05222
