19
dsC7O2H10nsd_4264.xyz
C          0.86204        2.02741       -0.80913
C          0.28082        1.14431        0.28198
C          1.25466        0.38208        1.23718
C          0.54027       -0.95681        0.91757
C          1.10044       -1.70551       -0.30040
O          0.33954       -0.88577       -1.22216
C         -0.34450       -0.21029       -0.14801
C         -1.83625       -0.33994       -0.23599
O         -2.60621        0.31758        0.42018
H          0.07259        2.45696       -1.43484
H          1.43128        2.85498       -0.37289
H          1.52899        1.45283       -1.45828
H         -0.47580        1.68162        0.86164
H          2.30484        0.39974        0.93002
H          1.19630        0.69228        2.28214
H          0.12983       -1.53704        1.74212
H          2.18120       -1.62658       -0.46880
H          0.80027       -2.75848       -0.37184
H         -2.18100       -1.11827       -0.95269
