19
dsC7O2H10nsd_2818.xyz
C          2.44788       -0.53863       -0.55993
C          1.03696       -0.39395       -0.10103
O          0.59794       -1.14205        1.04514
C         -0.58156       -0.29630        1.04055
C         -1.36056       -0.76939       -0.21990
O         -2.59931       -0.12709       -0.42667
C         -0.19060       -0.18392       -1.00768
C          0.15576        0.78415        0.14805
C          0.38612        2.25803        0.23843
H          2.65038        0.14236       -1.39197
H          3.14523       -0.31166        0.25255
H          2.64100       -1.56040       -0.90327
H         -1.05774       -0.17252        2.01211
H         -1.55228       -1.84445       -0.27899
H         -2.42611        0.81041       -0.56995
H         -0.10904       -0.02292       -2.07666
H          1.02319        2.59988       -0.58459
H         -0.55028        2.82582        0.18435
H          0.88255        2.52683        1.17770
