19
dsC7O2H10nsd_6062.xyz
C         -4.32407       -0.67692       -0.02307
O         -3.32426        0.30503       -0.15973
C         -2.02967       -0.19222        0.08363
C         -1.04742        0.96923       -0.10705
C          0.33554        0.57331        0.11907
C          1.47260        0.21985        0.30308
C          2.82415       -0.19998        0.55350
C          3.95911        0.30927       -0.24244
O          3.46937       -1.00870       -0.44691
H         -4.17783       -1.50947       -0.72911
H         -4.35122       -1.09327        0.99634
H         -5.28318       -0.19835       -0.23468
H         -1.94615       -0.59374        1.10664
H         -1.78369       -1.01184       -0.61066
H         -1.16884        1.36600       -1.12209
H         -1.32737        1.77897        0.57768
H          3.03348       -0.52331        1.57281
H          3.76083        1.01534       -1.04649
H          4.94163        0.38388        0.22245
