19
dsC7O2H10nsd_3040.xyz
C         -0.71831        2.12567        0.12694
C         -0.48378        0.84843       -0.65697
C         -1.44756       -0.36713       -0.65753
C         -1.64077       -0.72242        0.83107
C         -0.13845       -0.66299        1.25129
C          0.43577       -0.31223       -0.13947
O         -0.30512       -1.20930       -1.01934
C          1.91273       -0.26788       -0.36617
O          2.69001        0.22265        0.41495
H          0.19861        2.72268        0.16770
H         -1.48796        2.73501       -0.35897
H         -1.03953        1.94016        1.15469
H         -0.20315        1.06249       -1.69172
H         -2.29445       -0.45230       -1.33877
H         -2.27785       -0.01319        1.36560
H         -2.06655       -1.72140        0.94062
H          0.09121        0.09104        2.00574
H          0.24390       -1.62535        1.59544
H          2.23894       -0.69464       -1.34026
