19
dsC7O2H10nsd_1013.xyz
C         -3.73372        0.25871       -0.14293
C         -2.31361       -0.04225       -0.03968
C         -1.13989       -0.30295        0.03760
C          0.25755       -0.62499        0.14458
O          0.60136       -1.86376       -0.40291
C          1.04354       -0.16833        1.37821
C          1.31778        0.46969        0.03919
C          0.96244        1.90911       -0.23203
O          2.45159        0.01932       -0.67087
H         -3.92337        1.07099       -0.85362
H         -4.29294       -0.61840       -0.48688
H         -4.15183        0.55757        0.82484
H          1.43766       -1.71354       -0.86842
H          0.53329        0.42017        2.13258
H          1.76012       -0.89342        1.75085
H          0.89382        2.08448       -1.30987
H          0.00175        2.16350        0.22053
H          1.72747        2.57934        0.17688
H          3.22599        0.11091       -0.10621
