19
dsC7O2H10nsd_2443.xyz
C         -2.15544       -0.78900        0.24219
C         -0.68717       -0.48306        0.19990
O          0.11104       -1.56853       -0.24905
C          1.23316       -1.00685       -0.94321
C          1.34930        0.40693       -0.37776
C          1.44547        0.35057        1.18317
C         -0.07644        0.45245        1.25846
C         -0.14805        0.82496       -0.23292
O         -0.86068        1.75600       -0.95516
H         -2.71944        0.08541        0.57642
H         -2.51629       -1.07111       -0.75129
H         -2.35722       -1.61748        0.92818
H          2.10733       -1.63498       -0.74249
H          1.04772       -0.99142       -2.02877
H          2.03578        1.07041       -0.90337
H          1.90692       -0.55033        1.60059
H          1.93783        1.23408        1.59790
H         -0.66696        0.80427        2.09783
H         -0.54353        2.63538       -0.72034
