19
dsC7O2H10nsd_4352.xyz
C         -1.81944       -1.21508       -0.78556
C         -1.04139       -0.63072        0.39364
O         -1.54154        0.68038        0.72962
C         -0.77503        1.67098        0.07287
C          0.58808        1.03977       -0.20614
O          1.58028        1.59986       -0.60267
C          0.44050       -0.41125        0.12222
C          1.56254       -1.04103        0.93598
C          1.39408       -1.40011       -0.50384
H         -1.50693       -2.24438       -0.98837
H         -2.88893       -1.21782       -0.55883
H         -1.65966       -0.62897       -1.69659
H         -1.20574       -1.24860        1.28279
H         -1.22763        1.99392       -0.87895
H         -0.68280        2.55088        0.71722
H          2.38688       -0.38977        1.20543
H          1.27185       -1.76327        1.69157
H          2.10270       -0.98754       -1.21449
H          1.00434       -2.38167       -0.75043
