19
dsC7O2H10nsd_0289.xyz
C         -1.84765       -0.98779        0.26216
C         -1.20792        0.04066       -0.65073
O         -1.10119        1.38062       -0.28389
C          0.27807        1.76094       -0.21146
C          1.13413        0.66159        0.50100
C          1.81592       -0.38831       -0.43814
C          0.80571       -1.58421       -0.43636
C         -0.36083       -0.86970        0.20344
O          0.21069       -0.12189        1.25933
H         -2.31028       -0.64334        1.18000
H         -2.33604       -1.82771       -0.22001
H         -1.26274       -0.14347       -1.72480
H          0.67240        1.97351       -1.21738
H          0.29452        2.69019        0.36457
H          1.84439        1.12764        1.18711
H          1.97059        0.01190       -1.44404
H          2.79162       -0.68432       -0.04622
H          0.58515       -1.95932       -1.43824
H          1.16982       -2.41408        0.17611
