19
dsC7O2H10nsd_5376.xyz
O          3.05160       -0.83888       -0.45211
C          2.44523        0.03531        0.49911
C          1.00145        0.29239        0.19531
C          0.43106        1.48114       -0.02139
C         -1.04131        1.38033       -0.32598
C         -1.33364       -0.10919       -0.10201
C         -2.57637       -0.76392       -0.51727
O         -2.35381       -0.42241        0.85389
C          0.00422       -0.83786        0.05677
H          2.98049       -0.41364       -1.31332
H          2.54822       -0.48166        1.46096
H          2.99085        0.98762        0.57753
H          0.95721        2.42984        0.00984
H         -1.66791        1.99083        0.33455
H         -1.26458        1.69522       -1.35481
H         -3.35046       -0.18737       -1.02409
H         -2.57878       -1.83092       -0.74032
H         -0.02276       -1.49568        0.93363
H          0.24164       -1.47310       -0.80539
