19
dsC7O2H10nsd_2614.xyz
C         -0.76890        1.99399        0.45180
C         -0.67569        0.49171        0.68373
C         -1.55645       -0.46414       -0.12812
O         -2.65553       -0.37389       -0.59283
C         -0.42656       -1.49371       -0.25615
C          0.57561       -0.38015        0.22944
C          1.57340       -0.75109        1.31593
C          1.25116        0.23973       -0.97201
O          2.42224        0.51260       -1.03913
H         -0.00219        2.52945        1.02001
H         -0.65359        2.25387       -0.60406
H         -1.74816        2.35889        0.77460
H         -0.83879        0.26783        1.74697
H         -0.51791       -2.30106        0.47707
H         -0.27713       -1.93356       -1.24581
H          2.11541        0.13210        1.66522
H          1.06260       -1.20608        2.17035
H          2.31777       -1.45911        0.94061
H          0.57301        0.42995       -1.83693
