19
dsC7O2H10nsd_0554.xyz
C          2.27387        0.64552        0.03046
O          2.16608       -0.79688        0.09744
C          0.84246       -0.76964       -0.47118
C          0.83667        0.78386       -0.49646
C         -0.25467        0.79474        0.60518
C         -1.66074        1.14750        0.11184
O         -2.10801        0.02072       -0.63154
C         -1.66727       -1.12446        0.09046
C         -0.26585       -0.78445        0.60502
H          2.48647        1.09571        1.00901
H          3.05333        0.95115       -0.67909
H          0.74038       -1.43027       -1.33764
H          0.66856        1.39285       -1.38462
H          0.01053        1.31395        1.52884
H         -2.32638        1.33492        0.97102
H         -1.69491        2.01830       -0.54952
H         -2.34279       -1.33396        0.93615
H         -1.69334       -1.97873       -0.59271
H          0.00687       -1.31303        1.51940
