19
dsC7O2H10nsd_0907.xyz
O          2.49934        0.00037       -0.75609
C          2.28613       -0.00036        0.42603
O          1.08098       -0.00063        1.01110
C         -0.04358        0.00004        0.12662
C         -0.33289        1.31622       -0.62821
C         -1.78862        1.30768       -0.06298
C         -1.48794       -0.00011        0.72125
C         -1.78860       -1.30781       -0.06303
C         -0.33330       -1.31545       -0.62938
H          3.06158       -0.00082        1.20839
H          0.26571        2.14615       -0.24695
H         -0.21369        1.27177       -1.71247
H         -2.01014        2.16540        0.57574
H         -2.58521        1.22079       -0.80643
H         -1.68400       -0.00005        1.79322
H         -2.00897       -2.16576        0.57578
H         -2.58592       -1.22134       -0.80574
H          0.26584       -2.14571       -0.24972
H         -0.21508       -1.26963       -1.71369
