19
dsC7O2H10nsd_1702.xyz
C          0.28882       -0.77048        1.62379
C          0.41881       -0.00366        0.29899
C          0.93515       -0.90425       -0.88064
C          2.34656       -0.28708       -0.68894
C          1.72561        0.83322        0.18875
C         -0.85312        0.74983       -0.00385
O         -0.94960        1.95557       -0.06078
C         -2.13225       -0.05478       -0.30447
O         -2.19469       -1.25533       -0.34587
H         -0.52424       -1.49878        1.58330
H          1.21856       -1.30938        1.83219
H          0.10861       -0.08416        2.45836
H          0.82229       -1.98071       -0.73972
H          0.48859       -0.63446       -1.84167
H          3.01399       -0.94311       -0.12473
H          2.86673        0.03103       -1.59464
H          2.22678        1.06707        1.13105
H          1.55816        1.76477       -0.35538
H         -3.00258        0.60904       -0.49730
