19
dsC7O2H10nsd_0422.xyz
C          2.31033       -0.40703        0.38024
O          1.96236        0.18853       -0.87365
C          0.91891       -0.03591        0.09768
C          0.31509        1.23495        0.66615
C         -0.91774        1.61263       -0.15691
O         -1.92209        0.61110       -0.04099
C         -1.52713       -0.66578       -0.45851
C         -1.12188       -1.64091        0.61234
C         -0.07706       -1.07258       -0.33061
H          2.60949       -1.45388        0.33422
H          2.91268        0.21504        1.04257
H          0.01201        1.09051        1.70987
H          1.06714        2.02894        0.63470
H         -1.37620        2.53419        0.21084
H         -0.63494        1.76378       -1.20960
H         -2.09348       -1.02634       -1.31420
H         -1.15371       -1.26746        1.62989
H         -1.38174       -2.68796        0.50285
H          0.31356       -1.74607       -1.08622
