19
dsC7O2H10nsd_1391.xyz
O         -0.50549        2.17063       -0.04469
C         -0.80544        0.80217       -0.28621
C          0.33919       -0.01463        0.30915
C          1.68482        0.27204       -0.37617
C          2.84064       -0.37006        0.35189
O          3.66163       -1.09482       -0.14857
C         -2.17243        0.44314        0.34609
C         -2.60544       -0.91773        0.06103
C         -2.93777       -2.04318       -0.19986
H         -1.10423        2.71304       -0.56727
H         -0.86305        0.60389       -1.36760
H          0.40812        0.22791        1.37795
H          0.09031       -1.07748        0.23226
H          1.69239       -0.06901       -1.41575
H          1.84646        1.35834       -0.36721
H          2.89012       -0.11628        1.43816
H         -2.10703        0.60844        1.42867
H         -2.92335        1.15132       -0.02902
H         -3.24031       -3.03711       -0.41952
