19
dsC7O2H10nsd_5378.xyz
C          0.27073        2.02000       -0.33752
C         -0.37923        0.71387        0.02108
O         -1.47294        0.78966        0.97555
C         -1.74936        0.29978       -0.33914
C         -1.79422       -1.21979       -0.43875
C         -0.38948       -1.61919       -0.04075
C          0.40315       -0.56668        0.19310
C          1.84910       -0.60756        0.58278
O          2.69802       -0.04723       -0.42085
H         -0.48962        2.79012       -0.48889
H          0.93968        2.35344        0.46265
H          0.87478        1.92005       -1.24292
H         -2.41743        0.91673       -0.93552
H         -2.55259       -1.64884        0.22753
H         -2.04222       -1.54733       -1.45689
H         -0.09121       -2.65562        0.08303
H          2.02968       -0.00225        1.47819
H          2.14109       -1.64129        0.81998
H          2.54310       -0.54699       -1.22960
