19
dsC7O2H10nsd_5949.xyz
C          3.49581        0.09409       -0.02249
C          2.03705        0.18529        0.43075
C          1.06671       -0.45459       -0.57518
C         -0.35477       -0.34641       -0.12568
C         -1.11305       -1.01699        1.05526
C         -2.20231       -0.37511        0.16872
O         -1.45038       -0.84231       -1.02521
C         -1.30018        0.88058        0.04897
O         -1.32478        2.06509       -0.02497
H          4.16581        0.55589        0.70874
H          3.80716       -0.94851       -0.14993
H          3.64459        0.60383       -0.98047
H          1.92299       -0.30450        1.40609
H          1.75781        1.23529        0.57783
H          1.15714        0.03991       -1.54998
H          1.31950       -1.51105       -0.72929
H         -1.10726       -2.10700        0.99726
H         -0.96118       -0.63487        2.06831
H         -3.28086       -0.51248        0.17086
