19
dsC7O2H10nsd_0614.xyz
C          0.62288        0.62451        1.36271
O          0.47981       -0.79396        1.32048
C          0.21484       -1.34617        0.03045
C         -1.26671       -1.09372       -0.35464
O         -1.73664        0.18669        0.01884
C         -1.00462        1.30089       -0.45965
C          0.48465        1.29357       -0.02513
C          1.34341        0.52305       -1.00154
C          1.19068       -0.79716       -0.99011
H         -0.13458        1.02532        2.04757
H          1.61524        0.85146        1.77339
H          0.35146       -2.42635        0.14443
H         -1.39918       -1.27422       -1.43434
H         -1.90746       -1.79155        0.19248
H         -1.07285        1.37832       -1.55605
H         -1.51334        2.16801       -0.02562
H          0.81952        2.33275        0.05539
H          2.04218        1.03930       -1.65167
H          1.74286       -1.47477       -1.63265
