19
dsC7O2H10nsd_6065.xyz
C         -4.19816        0.98321        0.17335
O         -3.34675       -0.07434       -0.19992
C         -1.99795        0.16601        0.12357
C         -1.18966       -1.05308       -0.33446
C          0.23329       -0.91690       -0.05178
C          1.40286       -0.79048        0.20602
C          2.82126       -0.59853        0.47119
C          3.43292        0.49416       -0.40857
O          4.25654        1.27778       -0.02275
H         -4.17732        1.16037        1.26025
H         -3.92700        1.92352       -0.33206
H         -5.21308        0.70449       -0.11969
H         -1.62730        1.07502       -0.37770
H         -1.87210        0.31656        1.20813
H         -1.59303       -1.94464        0.16056
H         -1.35361       -1.19558       -1.40933
H          3.02346       -0.34726        1.51756
H          3.37607       -1.52448        0.25309
H          3.05824        0.49822       -1.45532
