19
dsC7O2H10nsd_4020.xyz
C          2.73379       -0.12724        0.35101
C          1.48608        0.23236       -0.44776
O          0.77818       -0.96221       -0.84652
C         -0.34204       -1.08424        0.00199
C         -0.35862       -0.07093        1.10085
C          0.43555        1.02765        0.33834
C         -0.82355        1.29036       -0.55409
C         -1.41283       -0.00657       -0.00350
O         -2.75955       -0.28717        0.13081
H          3.36285       -0.81392       -0.22205
H          3.32074        0.76865        0.58100
H          2.46534       -0.61651        1.29303
H          1.76762        0.75583       -1.36953
H         -0.65682       -2.10634        0.17811
H         -0.42472       -0.25638        2.16405
H          0.82653        1.87572        0.89834
H         -1.39198        2.15365       -0.19948
H         -0.66376        1.36908       -1.63563
H         -3.06513       -0.70308       -0.68329
