19
dsC7O2H10nsd_1547.xyz
C         -2.36516        0.10202       -0.77063
C         -1.07451        0.18099        0.04637
C         -1.04009        1.44900        0.89482
C         -0.76903       -1.16528        0.79845
C          0.43787       -1.40864       -0.12348
O          1.67397       -0.85224        0.43342
C          1.51023        0.32953       -0.25983
O          2.24036        1.26776       -0.26706
C          0.18074       -0.08382       -0.87797
H         -2.38963       -0.79227       -1.40274
H         -3.23737        0.06744       -0.10834
H         -2.47020        0.97672       -1.42192
H         -1.09792        2.34499        0.26748
H         -1.89193        1.46625        1.58397
H         -0.12607        1.51908        1.49106
H         -0.49977       -1.07759        1.85313
H         -1.56264       -1.90932        0.69396
H          0.61739       -2.37984       -0.58062
H          0.06321        0.03760       -1.95325
