19
dsC7O2H10nsd_1992.xyz
C          1.95936        1.22884       -0.23368
C          1.01458        0.11481        0.13442
C          1.42725       -1.33595        0.16872
C          0.41366       -0.87879       -0.85061
C         -1.05364       -0.90992       -0.41994
C         -1.66276        0.46349       -0.79159
O         -1.04160        1.33300        0.17500
C         -0.23203        0.45295        0.96442
O         -0.96870       -0.75208        1.00762
H          1.40457        2.09133       -0.61549
H          2.54256        1.56034        0.63382
H          2.66886        0.90858       -1.00277
H          2.41904       -1.55246       -0.21466
H          1.10390       -1.96900        0.98676
H          0.65575       -0.85269       -1.90669
H         -1.64789       -1.78880       -0.66783
H         -1.41160        0.78181       -1.80896
H         -2.74986        0.48696       -0.65718
H         -0.10145        0.87401        1.96162
