19
dsC7O2H10nsd_2075.xyz
C         -0.41029        2.03504       -0.28751
C          0.32295        0.77709        0.11249
C          1.71757        0.85455        0.69229
C          1.49791        0.19999       -0.64825
C          1.33330       -1.30420       -0.61110
O          0.42460       -1.56310        0.46576
C         -0.45259       -0.45233        0.60845
C         -1.74852       -0.70156       -0.16050
O         -2.74393       -0.03482       -0.04510
H         -1.13143        1.85648       -1.08968
H         -0.96396        2.45541        0.55851
H          0.30056        2.79207       -0.63181
H          2.18526        1.83315        0.70204
H          1.97121        0.21903        1.53529
H          1.86795        0.66625       -1.55388
H          0.92967       -1.67149       -1.56764
H          2.25229       -1.85743       -0.39093
H         -0.71480       -0.37300        1.67145
H         -1.70409       -1.58856       -0.83382
