19
dsC7O2H10nsd_5991.xyz
C         -3.47204       -0.30913       -0.04329
O         -2.08503       -0.37930       -0.27508
C         -1.38051        0.71307        0.29009
C          0.07296        0.49994        0.07310
C          1.04435        1.27402       -0.41613
C          2.27006        0.35127       -0.27371
C          1.71848       -0.98864       -0.85026
C          0.86434       -0.77824        0.43334
O          2.06398       -0.21452        1.06509
H         -3.91667        0.59386       -0.49096
H         -3.92478       -1.19039       -0.50378
H         -3.70768       -0.30797        1.03304
H         -1.70654        1.66644       -0.15747
H         -1.59901        0.77414        1.37253
H          1.01612        2.27907       -0.81131
H          3.27252        0.73433       -0.45888
H          1.21962       -0.98142       -1.82110
H          2.42858       -1.81278       -0.75118
H          0.38040       -1.57855        0.99011
