19
dsC7O2H10nsd_2233.xyz
O          1.02859        1.92900       -0.21723
C          0.65847        0.59179       -0.11246
C          1.75131       -0.47920        0.00669
C          0.57198       -1.36466        0.49885
C         -0.26677       -1.48887       -0.79023
C         -0.45026        0.03317       -1.07058
C         -1.71955        0.46551       -0.33024
O         -1.43616        0.13654        1.04112
C         -0.03336       -0.04964        1.11908
H          0.23550        2.47554       -0.20323
H          2.28051       -0.79219       -0.89640
H          2.46455       -0.22903        0.79556
H          0.74174       -2.26094        1.09246
H          0.28272       -2.00682       -1.58103
H         -1.22240       -1.99930       -0.64204
H         -0.38772        0.35048       -2.11191
H         -1.92699        1.54514       -0.42803
H         -2.61473       -0.07755       -0.65075
H          0.33644        0.22180        2.10748
