19
dsC7O2H10nsd_1486.xyz
C          1.23135       -1.03779        1.27632
C          0.83555       -0.34382       -0.02035
C          1.98361       -0.30523       -1.04205
C         -0.50259       -0.77243       -0.70492
O         -1.52658       -1.17836        0.22469
C         -2.14096        0.12905        0.20486
C         -1.02702        0.69772       -0.70469
C          0.22811        1.07863        0.09751
O          0.60587        2.09306        0.60872
H          0.36000       -1.18687        1.91767
H          1.67691       -2.01799        1.07431
H          1.96715       -0.43461        1.81727
H          1.68205        0.17059       -1.98206
H          2.83071        0.25820       -0.64047
H          2.31841       -1.32248       -1.27099
H         -0.44275       -1.42378       -1.57993
H         -3.12472        0.09753       -0.27804
H         -2.24113        0.56827        1.20349
H         -1.30931        1.29683       -1.56864
