19
dsC7O2H10nsd_5008.xyz
C          2.68510        0.60300        0.26974
C          1.83927       -0.45241       -0.45215
C          0.37263       -0.32620       -0.13914
C         -0.28088       -0.62077        1.23716
C         -1.45668       -0.89791        0.27951
O         -0.48333       -1.39829       -0.70197
C         -1.77711        0.49340       -0.32759
O         -1.18371        1.60546        0.36397
C         -0.41784        0.92071       -0.64058
H          3.74339        0.48756        0.02006
H          2.38411        1.61814       -0.00905
H          2.58561        0.51513        1.35642
H          1.97145       -0.36588       -1.53853
H          2.16944       -1.45983       -0.17692
H          0.10737       -1.54976        1.65445
H         -0.36366        0.17221        1.97745
H         -2.27259       -1.58832        0.48657
H         -2.66165        0.69784       -0.91971
H         -0.11412        1.49657       -1.50836
