19
dsC7O2H10nsd_0246.xyz
C          1.76490       -0.05038       -0.79580
C          1.53421       -1.04581        0.34852
C          0.22521       -0.53227        0.98105
C         -1.04903       -1.07977        0.36298
O         -1.14369       -0.84642       -1.05177
C         -1.87355        0.01472       -0.16657
C         -1.19008        1.34065        0.08827
C          0.22512        0.98972        0.62574
O          1.26185        1.19889       -0.32646
H          2.82223        0.09057       -1.04045
H          1.22851       -0.36727       -1.69748
H          1.46122       -2.07883       -0.00150
H          2.34989       -0.98914        1.07588
H          0.19977       -0.69950        2.06201
H         -1.46454       -2.02627        0.70202
H         -2.95577       -0.05059       -0.25235
H         -1.11136        1.95518       -0.81283
H         -1.75932        1.90861        0.83328
H          0.46342        1.61641        1.49214
