19
dsC7O2H10nsd_4589.xyz
C         -1.76218        0.48723        1.44985
C         -1.10119        0.34186        0.06913
C         -1.27804        1.63079       -0.77557
C         -1.75130       -0.80543       -0.72554
O         -2.70682       -1.43495       -0.36237
C          0.32243        0.01687        0.18411
C          1.48786       -0.27928        0.27542
C          2.91048       -0.61448        0.34832
O          3.74553        0.28675       -0.36429
H         -1.64021       -0.42563        2.03628
H         -1.31180        1.31856        1.99769
H         -2.83278        0.67271        1.33357
H         -0.86325        1.50683       -1.78022
H         -2.33964        1.88148       -0.86260
H         -0.75817        2.46326       -0.29489
H         -1.25366       -1.00471       -1.70107
H          3.25042       -0.57456        1.38910
H          3.05598       -1.65241        0.00849
H          3.41488        0.33477       -1.26731
