19
dsC7O2H10nsd_3192.xyz
C          2.26211       -0.67615       -0.73078
C          0.92169       -0.38018       -0.11198
C          0.05853       -1.38268        0.68044
C         -0.70309       -0.12200        1.16740
C          0.65504        0.69818        0.96747
O          0.45049        1.73925       -0.00226
C         -0.04361        0.64944       -0.83668
C         -1.38829        0.35535       -0.12504
O         -2.20036       -0.65268       -0.69037
H          2.15926       -1.33153       -1.60339
H          2.74940        0.24823       -1.05863
H          2.92648       -1.17584       -0.01754
H         -0.51348       -2.14575        0.15295
H          0.65156       -1.83798        1.47988
H         -1.27677       -0.10732        2.09163
H          1.28585        0.95394        1.81815
H         -0.02006        0.85591       -1.90787
H         -1.94065        1.29277        0.01226
H         -2.59699       -0.29687       -1.49134
