19
dsC7O2H10nsd_5448.xyz
O         -3.33780        0.23807       -0.24855
C         -2.23804       -0.65879       -0.15888
C         -1.07349       -0.06986        0.61850
C         -0.13918        0.95791       -0.06789
C          1.05958        0.58604        0.87067
C          2.00499        0.41684       -0.33455
O          3.13423       -0.41090       -0.24172
C          0.66323       -0.14868       -0.84254
C          0.30620       -0.76221        0.56683
H         -3.03606        1.02216       -0.71824
H         -2.62377       -1.54384        0.35996
H         -1.90882       -0.98717       -1.15747
H         -1.40562        0.22256        1.62230
H         -0.35851        1.96130       -0.43837
H          1.24934        1.00371        1.86068
H          2.34636        1.34181       -0.80999
H          2.87191       -1.23871        0.17565
H          0.42166       -0.57072       -1.81838
H          0.57229       -1.75598        0.93327
