19
dsC7O2H10nsd_2282.xyz
C          2.35070        0.40685        0.36502
C          0.89957        0.15289        0.02859
O          0.80578       -0.93180       -0.90081
C         -0.49444       -1.48568       -0.70558
C         -1.00594       -0.81211        0.60146
C         -1.93659        0.37726        0.32818
C         -1.15981        1.45891       -0.38480
C          0.15976        1.36200       -0.53329
O          0.20751       -0.32296        1.17276
H          2.43125        1.21424        1.09709
H          2.79280       -0.50173        0.77811
H          2.89682        0.69258       -0.53756
H         -1.14724       -1.26743       -1.55966
H         -0.39568       -2.57083       -0.60275
H         -1.44826       -1.52494        1.30041
H         -2.79323        0.05417       -0.27742
H         -2.35201        0.75986        1.27060
H         -1.70771        2.31424       -0.77099
H          0.73753        2.10722       -1.07080
