19
dsC7O2H10nsd_3913.xyz
C          2.50290        0.84328       -0.00002
C          1.85181       -0.53684        0.00005
C          0.74915       -0.72519        1.08703
C         -0.32067       -0.46841       -0.00002
C          0.74919       -0.72527       -1.08700
O         -1.55472       -1.21626       -0.00003
C         -2.39416       -0.04285        0.00003
C         -1.13194        0.82705       -0.00001
O         -0.88224        1.99520       -0.00004
H          3.13393        0.97776       -0.88522
H          1.74799        1.63711       -0.00000
H          3.13398        0.97781        0.88514
H          2.61952       -1.31431        0.00009
H          0.67247       -1.75799        1.43721
H          0.76089       -0.05036        1.94707
H          0.67254       -1.75807       -1.43715
H          0.76097       -0.05048       -1.94708
H         -3.02223        0.03821       -0.89573
H         -3.02209        0.03822        0.89589
