19
dsC7O2H10nsd_5306.xyz
O         -2.80787        0.21747       -0.47581
C         -1.93259       -0.11951        0.59227
C         -0.48142        0.01345        0.21438
C          0.06824        1.36310       -0.26262
C          1.58384        1.31115        0.07911
C          1.82986       -0.17797        0.28456
O          1.45840       -0.86848       -0.96108
C          0.21178       -1.21780       -0.36488
C          0.58066       -0.73945        1.00073
H         -2.55938       -0.32332       -1.23304
H         -2.18215        0.57715        1.40101
H         -2.13103       -1.13698        0.96964
H         -0.09383        1.50163       -1.33452
H         -0.44121        2.18500        0.24927
H          2.21513        1.71887       -0.71518
H          1.80606        1.85606        1.00426
H          2.82178       -0.48044        0.62383
H         -0.29215       -2.11198       -0.71759
H          0.49027       -1.17571        1.98610
