19
dsC7O2H10nsd_5383.xyz
O          2.88474       -0.43292        0.54422
C          2.10094       -0.03369       -0.57953
C          0.70268        0.33920       -0.18916
C          0.09710        1.51195       -0.40366
C         -1.30988        1.57138        0.14271
C         -1.54695        0.13703        0.64156
O         -2.14212       -0.71666       -0.36425
C         -0.99797       -1.59534       -0.37211
C         -0.20115       -0.62815        0.53581
H          2.90660        0.31268        1.15349
H          2.57466        0.79296       -1.12949
H          2.09775       -0.90664       -1.24369
H          0.55788        2.35082       -0.91685
H         -1.40363        2.31489        0.94592
H         -2.05586        1.82883       -0.61870
H         -2.10100        0.08067        1.58495
H         -1.22677       -2.56561        0.08827
H         -0.60955       -1.75964       -1.38448
H          0.25036       -1.06661        1.42716
