19
dsC7O2H10nsd_4178.xyz
C         -2.74204       -0.02799       -0.24534
C         -1.26503        0.02522       -0.63794
C         -0.50494       -1.30438       -0.32258
C          0.56368       -0.81871        0.68958
O         -0.10872        0.23584        1.38779
C         -0.46068        1.02614        0.23327
C          0.91886        1.30780       -0.38928
C          1.61242       -0.04061       -0.11926
O          2.69905       -0.40518       -0.47708
H         -2.84254       -0.22185        0.82755
H         -3.24960        0.91606       -0.47070
H         -3.26498       -0.82537       -0.78318
H         -1.17699        0.28524       -1.69757
H         -1.16678       -2.02930        0.15818
H         -0.06623       -1.77746       -1.20466
H          0.96387       -1.55968        1.37848
H         -1.01620        1.90594        0.55813
H          0.92311        1.55260       -1.45415
H          1.44007        2.10377        0.15161
