19
dsC7O2H10nsd_4281.xyz
C         -2.86050       -0.26428       -0.03347
C         -1.39620       -0.16467        0.39024
O         -0.67452       -1.06002       -0.45430
C          0.70837       -0.87757       -0.54179
C          1.63530       -0.97531        0.69635
O          2.30369        0.24510        0.30980
C          1.26321        0.55693       -0.66833
C          0.30704        1.58863       -0.16037
C         -0.87998        1.24918        0.33768
H         -3.19105       -1.30505        0.01003
H         -3.49361        0.33172        0.63056
H         -2.98426        0.09797       -1.05795
H         -1.31738       -0.51707        1.43475
H          1.04118       -1.53162       -1.34988
H          1.11841       -0.87893        1.66042
H          2.32356       -1.82570        0.73927
H          1.71331        0.84235       -1.62542
H          0.63567        2.62446       -0.16301
H         -1.54262        2.00377        0.75537
