19
dsC7O2H10nsd_5211.xyz
C         -2.85717       -0.45212       -0.21209
O         -1.84462       -0.16375        0.73362
C         -0.60955        0.07559        0.16877
C         -0.30390        1.36421       -0.65941
C          1.12001        1.20158       -0.13009
C          0.66327        0.36482        1.05229
C          1.42140       -0.30987       -0.05044
O          2.70980       -0.79215        0.04624
C          0.19050       -1.05210       -0.56759
H         -2.62188       -1.35326       -0.79615
H         -3.77830       -0.62350        0.34865
H         -3.01456        0.38412       -0.90822
H         -0.47615        1.33856       -1.74175
H         -0.79697        2.23640       -0.21960
H          1.93276        1.91668       -0.13803
H          0.82294        0.44949        2.11628
H          3.14367       -0.67236       -0.80594
H          0.04962       -1.17157       -1.64853
H          0.07002       -2.01001       -0.05420
