19
dsC7O2H10nsd_4570.xyz
O          0.09529        2.10941       -0.38170
C         -0.54744        0.99651        0.18638
C         -1.59496        0.40144       -0.75344
C         -1.75012       -1.08080       -0.30040
C         -0.64053       -1.32631        0.75595
C          0.38615       -0.19542        0.51509
O          1.14249        0.17510        1.66820
C          1.28195       -0.51631       -0.59940
C          2.03809       -0.82397       -1.48241
H          0.80722        2.35873        0.21905
H         -1.00972        1.26420        1.15119
H         -2.53373        0.95847       -0.72209
H         -1.20995        0.46454       -1.77517
H         -2.73829       -1.27890        0.12182
H         -1.63085       -1.75386       -1.15273
H         -1.02396       -1.19640        1.77294
H         -0.19351       -2.32076        0.69116
H          1.88904       -0.42832        1.74342
H          2.70272       -1.07452       -2.27226
