19
dsC7O2H10nsd_5980.xyz
C          3.23521        0.15316        0.00034
O          1.84432        0.37686       -0.00049
C          1.09621       -0.81751       -0.00034
C         -0.35891       -0.45524       -0.00022
O         -1.33259       -1.54408        0.00010
C         -2.13383       -0.32261        0.00044
C         -1.18781        0.46097        0.96118
C         -1.10345        1.66690       -0.00008
C         -1.18859        0.46085       -0.96111
H          3.55804       -0.40651       -0.89133
H          3.72220        1.13100        0.00047
H          3.55701       -0.40625        0.89254
H          1.32141       -1.43159       -0.88865
H          1.32142       -1.43137        0.88812
H         -3.21974       -0.40904        0.00087
H         -1.18976        0.42341        2.05055
H         -1.96165        2.34489        0.00020
H         -0.16435        2.22094       -0.00051
H         -1.19140        0.42310       -2.05046
