19
dsC7O2H10nsd_4747.xyz
C         -0.45804        2.26005        0.00310
C         -0.18275        1.06534        0.91741
C         -0.32137       -0.31473        0.23489
C          0.02471       -1.46377        1.19589
O          0.52299       -0.39127       -0.97198
C          1.85332       -0.28676       -0.88657
O          2.52295       -0.12093        0.09745
C         -1.68136       -0.49974       -0.28069
C         -2.81219       -0.65983       -0.65205
H          0.25431        2.30463       -0.82568
H         -1.46483        2.21167       -0.42142
H         -0.37054        3.19302        0.56707
H          0.82249        1.12789        1.33912
H         -0.88937        1.06690        1.75496
H         -0.03473       -2.42083        0.67209
H          1.02784       -1.33143        1.60053
H         -0.69872       -1.47634        2.01501
H          2.26118       -0.38006       -1.90649
H         -3.80912       -0.80108       -0.99076
