19
dsC7O2H10nsd_0167.xyz
C         -1.89237       -0.55999       -0.72490
C         -1.74232        0.77252        0.10750
C         -1.15661       -0.09758        1.24877
C         -0.48927       -0.58536       -0.08830
O          0.56443       -1.46673       -0.23930
C          1.74547       -0.82744        0.25449
O          1.98630        0.44254       -0.28546
C          0.98522        1.42169        0.05791
C         -0.31494        0.88608       -0.52263
H         -2.62859       -1.27686       -0.35292
H         -1.93250       -0.45563       -1.81182
H         -2.49492        1.55176        0.20309
H         -0.53836        0.40127        1.99450
H         -1.84444       -0.80251        1.72150
H          1.68091       -0.76729        1.35487
H          2.58117       -1.46188       -0.04340
H          0.96101        1.56732        1.14597
H          1.31678        2.35517       -0.40233
H         -0.31789        1.02261       -1.60833
