19
dsC7O2H10nsd_0030.xyz
C          2.43398       -1.07627        0.06574
C          1.28124       -0.13621        0.03784
C         -0.06463       -0.28006        0.21916
C         -0.82999       -1.54029        0.46896
O         -1.75249       -1.84298       -0.57989
C         -0.64165        1.03990        0.07172
C         -2.09146        1.39575        0.18096
C          0.40427        1.86364       -0.18228
O          1.58072        1.17067       -0.20403
H          2.08763       -2.10285        0.20170
H          3.00743       -1.02763       -0.86668
H          3.12370       -0.84084        0.88461
H         -0.13942       -2.37960        0.64058
H         -1.44940       -1.44955        1.36847
H         -1.26195       -1.79210       -1.40713
H         -2.69812        0.75290       -0.46361
H         -2.46170        1.25777        1.20430
H         -2.26700        2.43873       -0.09645
H          0.48239        2.92283       -0.36701
