19
dsC7O2H10nsd_3702.xyz
O          2.76427       -1.04545       -0.27698
C          2.08857        0.17148       -0.41004
C          1.75279        1.04770        0.77114
C          0.66166        0.32571        0.00884
C         -0.51752        0.94937       -0.76072
C         -1.42693       -0.04430       -0.02487
C         -2.75559        0.16953        0.54792
O         -2.55516       -0.67262       -0.59806
C         -0.23012       -0.79799        0.57245
H          2.47274       -1.47287        0.53478
H          2.40749        0.65862       -1.32669
H          1.99917        0.67825        1.76374
H          1.84284        2.12467        0.66250
H         -0.71574        2.01021       -0.58215
H         -0.48579        0.76829       -1.84001
H         -3.04296       -0.34871        1.46236
H         -3.28652        1.10120        0.35480
H         -0.23928       -0.93908        1.65754
H         -0.06211       -1.76507        0.08515
