19
dsC7O2H10nsd_4463.xyz
O         -1.31033        1.61175        0.29373
C         -1.11264        0.55319       -0.63120
C         -1.70836       -0.74792       -0.03209
C         -0.62583       -1.29711        0.95397
C          0.68439       -0.82884        0.34728
C          0.96119       -1.06361       -1.12870
C          0.36477        0.22556       -0.68433
O          1.35574        1.15357       -0.20224
C          1.66147        0.22078        0.88837
H         -0.49338        2.12838        0.29337
H         -1.56823        0.80338       -1.60015
H         -2.66107       -0.53421        0.45818
H         -1.90901       -1.46832       -0.83224
H         -0.75289       -0.83623        1.93848
H         -0.70765       -2.38042        1.08655
H          1.98578       -1.05211       -1.48643
H          0.31240       -1.77076       -1.63313
H          2.72883       -0.02573        0.91259
H          1.35202        0.64122        1.85112
