19
dsC7O2H10nsd_3577.xyz
O         -0.47822       -1.41861        1.20583
C         -0.72395       -1.31996       -0.19837
C          0.58813       -0.99087       -0.95530
C          1.36947        0.11775       -0.25732
O          2.40633       -0.13367        0.31572
C          0.79550        1.52587       -0.27255
C         -0.51627        1.66363        0.54556
C         -1.71510        0.99836       -0.08579
C         -1.80742       -0.28898       -0.41798
H          0.32985       -1.92899        1.33372
H         -1.08659       -2.28509       -0.58107
H          1.23547       -1.87371       -0.97298
H          0.34849       -0.71452       -1.98760
H          1.56045        2.18406        0.14731
H          0.60250        1.82954       -1.30890
H         -0.34721        1.25197        1.54646
H         -0.71843        2.73129        0.66896
H         -2.57077        1.63917       -0.28626
H         -2.72096       -0.65027       -0.88141
