19
dsC7O2H10nsd_0685.xyz
O         -2.84757       -0.84339       -0.59843
C         -1.87709       -0.31117       -0.13073
C         -1.49117        1.16321       -0.28015
O         -0.33383        1.35676        0.50452
C          0.34704        0.09523        0.67623
C         -0.77710       -0.95059        0.71606
C          1.35924       -0.15433       -0.41871
C          2.69191        0.54196       -0.37269
C          2.61045       -0.93966       -0.10569
H         -1.32359        1.38433       -1.34663
H         -2.29259        1.81949        0.07566
H          0.87200        0.17394        1.63362
H         -0.50172       -1.93560        0.33555
H         -1.16681       -1.07467        1.73306
H          0.92924       -0.31350       -1.40526
H          3.12946        0.87491       -1.30690
H          2.88463        1.20127        0.46708
H          2.98791       -1.62492       -0.85604
H          2.75301       -1.28010        0.91516
