19
dsC7O2H10nsd_0576.xyz
C         -1.88767       -0.84495       -0.55946
O         -2.25967        0.13551        0.41118
C         -1.29773        1.18691        0.38858
C         -0.00000        0.52009        0.00001
C          1.29773        1.18691       -0.38858
O          2.25966        0.13550       -0.41120
C          1.88768       -0.84493        0.55946
C          0.37319       -0.79136        0.65461
C         -0.37318       -0.79136       -0.65460
H         -2.29006       -1.80313       -0.21394
H         -2.33102       -0.61881       -1.54270
H         -1.56917        1.96392       -0.34641
H         -1.29346        1.64442        1.38400
H          1.29345        1.64443       -1.38400
H          1.56918        1.96392        0.34641
H          2.29007       -1.80312        0.21397
H          2.33103       -0.61877        1.54270
H         -0.11731       -1.13437        1.55954
H          0.11732       -1.13437       -1.55953
