19
dsC7O2H10nsd_0083.xyz
C          3.20159        0.08285       -0.50697
C          2.12240       -0.18509       -0.05385
C          0.81859       -0.48860        0.55664
O          0.17498        0.65531        1.06149
C         -0.31475        1.57072        0.07811
C         -1.51295        1.01086       -0.72603
C         -2.18129       -0.16044        0.00645
C         -1.28977       -1.42925       -0.01810
O          0.05690       -1.16544       -0.41035
H          4.15561        0.31440       -0.91283
H          0.96155       -1.11941        1.44819
H         -0.62153        2.44024        0.66530
H          0.49988        1.88178       -0.58759
H         -2.24070        1.81418       -0.88396
H         -1.18120        0.68021       -1.71418
H         -2.39307        0.12949        1.03980
H         -3.14273       -0.39138       -0.46437
H         -1.30733       -1.94010        0.95507
H         -1.64842       -2.13464       -0.77209
