19
dsC7O2H10nsd_3352.xyz
O          2.14622       -1.01217       -0.51397
C          0.80561       -0.62489       -0.69880
C          0.52468        0.89915       -0.76461
C          0.84344        1.34606        0.68245
C          0.35759        0.13530        1.54617
C         -0.16193       -0.88478        0.48812
C         -1.44932       -0.27958       -0.06271
O         -2.57973       -0.63530        0.14428
C         -1.00516        0.90260       -0.94820
H          2.48426       -0.60622        0.29041
H          0.48363       -1.13893       -1.60995
H          1.07729        1.43743       -1.53575
H          1.91479        1.52899        0.81373
H          0.33312        2.27662        0.94357
H          1.17384       -0.30918        2.12425
H         -0.41972        0.40794        2.26349
H         -0.26964       -1.90786        0.84438
H         -1.30037        0.69629       -1.98375
H         -1.49851        1.83157       -0.64750
