19
dsC7O2H10nsd_3632.xyz
C          2.90742       -0.05220       -0.05358
C          1.43970        0.30912       -0.02442
O          1.03530        1.36837       -0.45752
C          0.47383       -0.73676        0.55173
C         -0.71609       -0.09859        1.31125
C         -1.84543        0.05405        0.25967
O         -1.90728        1.34096       -0.33099
C         -1.47905       -1.01307       -0.75530
C         -0.22441       -1.43548       -0.60800
H          3.04931       -1.02026       -0.54776
H          3.48100        0.71896       -0.56856
H          3.27856       -0.16709        0.97176
H          1.03963       -1.43945        1.17262
H         -1.03296       -0.78913        2.09844
H         -0.47710        0.86209        1.77166
H         -2.83316       -0.10686        0.70354
H         -0.99827        1.56478       -0.58743
H         -2.15716       -1.31835       -1.54401
H          0.29022       -2.14192       -1.25031
