19
dsC7O2H10nsd_5545.xyz
C          3.00886       -0.32202        0.13514
O          1.87333        0.33681       -0.38775
C          0.76331        0.28587        0.46037
C         -0.05939       -1.01330        0.53697
C         -0.55175       -1.34791       -0.82689
C         -1.31852       -0.28823       -0.04236
C         -2.77956       -0.39858        0.28415
C         -0.52608        0.98148       -0.07516
O         -0.82259        2.13297       -0.22685
H          2.82786       -1.39703        0.28116
H          3.81785       -0.19431       -0.58752
H          3.31697        0.11290        1.09834
H          1.00621        0.68402        1.45918
H         -0.05722       -1.71610        1.36019
H          0.04332       -1.07457       -1.69204
H         -1.09352       -2.28286       -0.92974
H         -3.06006       -1.43438        0.49906
H         -3.03816        0.21552        1.15248
H         -3.39037       -0.05533       -0.55752
