19
dsC7O2H10nsd_0136.xyz
C         -2.59237       -0.06804        0.06906
C         -1.46596        0.79359       -0.42103
C         -1.38085       -0.72730       -0.53280
C         -0.29543       -0.76264        0.56566
O          0.91879       -1.42238        0.31118
C          1.84560       -0.71682       -0.50143
C          2.03253        0.68880        0.03364
O          0.81753        1.40739       -0.08802
C         -0.29458        0.81591        0.56415
H         -2.79580       -0.16988        1.13401
H         -3.48345       -0.05756       -0.55005
H         -1.59172        1.54227       -1.19341
H         -1.42781       -1.37278       -1.40114
H         -0.66065       -1.19787        1.50239
H          2.77728       -1.28924       -0.46372
H          1.50278       -0.66647       -1.54628
H          2.37054        0.64391        1.08159
H          2.77512        1.24167       -0.54976
H         -0.45046        1.30482        1.53763
