19
dsC7O2H10nsd_1442.xyz
C         -1.72679       -1.46305        0.12139
C         -1.09419       -0.08862       -0.03683
O         -2.04372        0.80518       -0.55867
C         -0.24063        0.60111        1.16444
C          0.37904        1.52495        0.10085
C          0.41951        0.07087       -0.48017
O          1.58298       -0.36863       -1.20195
C          2.25610       -0.39169        0.11922
C          0.87925       -0.45129        0.87049
H         -2.07949       -1.81820       -0.85543
H         -1.05173       -2.22232        0.51279
H         -2.59461       -1.39229        0.78415
H         -2.58234        0.33777       -1.20458
H         -0.67944        0.89296        2.11984
H         -0.28012        2.23717       -0.38589
H          1.34080        1.96328        0.36265
H          2.84264       -1.30607        0.23121
H          2.89498        0.48485        0.24653
H          0.64147       -1.48318        1.11736
