19
dsC7O2H10nsd_4011.xyz
C         -3.06910       -0.11210        0.08390
C         -1.65508        0.05903       -0.43605
O         -0.86198       -1.14602       -0.23434
C          0.01462       -0.48252        0.69311
C         -0.68816        0.88818        0.43278
C          0.57191        1.39483       -0.33010
C          1.28115        0.08325        0.04892
C          2.67184       -0.11717        0.46549
O          2.16800       -0.64598       -0.76808
H         -3.64742        0.80604       -0.06894
H         -3.56984       -0.92742       -0.44715
H         -3.06781       -0.34993        1.15238
H         -1.66779        0.34155       -1.49743
H          0.09689       -1.01364        1.64576
H         -1.10928        1.52327        1.21015
H          0.42319        1.53841       -1.40400
H          1.03440        2.29382        0.08457
H          3.38448        0.70136        0.36858
H          2.91183       -0.85837        1.22718
