19
dsC7O2H10nsd_0761.xyz
O          0.90064        2.02034       -0.45274
C          0.21936        1.08260       -0.11198
C         -1.18342        1.23069        0.45208
C         -2.16095        0.16759       -0.08397
C         -1.60185       -1.24923        0.10007
C         -0.25248       -1.40227       -0.61765
C          0.73713       -0.35319       -0.15495
C          2.18486       -0.55686       -0.19844
O          1.47746       -0.66726        1.04574
H         -1.08647        1.10572        1.54082
H         -1.52737        2.25135        0.26797
H         -3.12460        0.27055        0.42521
H         -2.35053        0.35044       -1.14996
H         -1.46641       -1.45635        1.16914
H         -2.31233       -1.99045       -0.27989
H          0.17837       -2.39395       -0.44685
H         -0.40008       -1.29242       -1.70111
H          2.57433       -1.49509       -0.59073
H          2.83446        0.30961       -0.28958
