19
dsC7O2H10nsd_1100.xyz
C          2.64662        1.03029       -0.08972
C          1.80962       -0.23375        0.00618
O          2.33856       -1.32389        0.09391
C          0.31628       -0.08572       -0.01355
C         -0.43430       -1.19345        0.03886
C         -1.92910       -1.16946       -0.01846
O         -2.46827        0.09462       -0.34462
C         -1.81783        1.15156        0.33932
C         -0.35137        1.27036       -0.08668
H          3.69934        0.75606       -0.15994
H          2.35918        1.63197       -0.95881
H          2.49667        1.65913        0.79551
H          0.05644       -2.15881        0.12654
H         -2.28803       -1.86601       -0.78634
H         -2.33401       -1.53351        0.94544
H         -2.37584        2.06035        0.09899
H         -1.87489        0.99477        1.42934
H         -0.29331        1.67705       -1.10512
H          0.15264        1.99427        0.56447
