19
dsC7O2H10nsd_5858.xyz
O          2.56944       -1.37632       -0.19735
C          1.31288       -1.24204        0.43280
C          0.44742       -0.20760       -0.27388
O          1.16922        1.02927       -0.28894
C          0.31252        2.12454        0.04106
C         -1.11667        1.57769        0.00524
C         -0.90031        0.10330        0.41752
C         -1.97674       -0.80378        0.05806
C         -2.85967       -1.55830       -0.25184
H          2.92241       -0.48184       -0.27476
H          0.82595       -2.22225        0.39769
H          1.42019       -0.95112        1.49168
H          0.26997       -0.53189       -1.30922
H          0.57073        2.50222        1.04075
H          0.47606        2.93355       -0.67879
H         -1.79815        2.10936        0.67247
H         -1.52762        1.61646       -1.00764
H         -0.74442        0.06440        1.50484
H         -3.64098       -2.22541       -0.52048
