19
dsC7O2H10nsd_4408.xyz
C         -1.03591       -1.37066       -1.44157
C         -0.73012       -1.02630        0.00626
C         -1.77206       -0.27461        0.87147
C         -0.62813        0.55250        1.50714
C          0.31375        0.14793        0.34549
C          0.38094        1.16083       -0.77734
O         -0.38095        2.08967       -0.88866
C          1.67763       -0.40920        0.66674
O          2.55706       -0.57120       -0.14268
H         -1.40047       -0.49957       -1.99448
H         -0.15183       -1.76088       -1.95641
H         -1.81385       -2.14085       -1.48317
H         -0.38806       -1.92465        0.53331
H         -2.41975        0.35413        0.25555
H         -2.39152       -0.88304        1.53389
H         -0.79588        1.62436        1.61423
H         -0.28399        0.13772        2.45974
H          1.18940        0.97745       -1.51166
H          1.81050       -0.71535        1.73064
