19
dsC7O2H10nsd_4681.xyz
C         -3.12190       -0.58563        0.73418
C         -2.31211       -0.37821       -0.56005
C         -1.05123        0.42682       -0.28777
O         -0.99916        1.62079       -0.48539
C          0.15541       -0.33660        0.23136
C          1.21161       -0.68876       -0.88582
C          2.28624       -0.11455        0.05558
O          3.47670       -0.21275        0.09440
C          1.23234        0.50177        0.97820
H         -4.02647       -1.16430        0.52893
H         -2.54496       -1.12638        1.49128
H         -3.42124        0.37636        1.15974
H         -2.04367       -1.35203       -0.98667
H         -2.91025        0.17080       -1.29176
H         -0.14632       -1.23412        0.77514
H          1.32430       -1.73447       -1.17958
H          1.09338       -0.07119       -1.78248
H          1.36252        0.35422        2.05225
H          1.09022        1.56780        0.76706
