19
dsC7O2H10nsd_4961.xyz
O          2.54770        0.04961        0.56168
C          1.80157       -0.75630       -0.34454
C          0.33954       -0.44175       -0.26155
C         -0.62144       -1.09124        0.74787
C         -1.80020       -0.14443        0.96787
C         -1.66701        0.20119       -0.53882
C         -0.89978       -1.17228       -0.73580
C         -0.27768        0.88974       -0.66222
O          0.04513        2.06051        0.06187
H          2.27897        0.96293        0.40547
H          2.15629       -0.61468       -1.37893
H          2.00323       -1.79839       -0.07297
H         -0.26551       -1.88141        1.39676
H         -2.72148       -0.69779        1.16773
H         -1.71617        0.67267        1.69774
H         -2.51953        0.55878       -1.11183
H         -1.02662       -2.00201       -1.41477
H         -0.05534        1.11945       -1.70883
H         -0.12653        1.88979        0.99447
