19
dsC7O2H10nsd_2616.xyz
C         -0.97491        2.00372       -0.01051
C         -0.73338        0.60145       -0.55075
C         -1.63289       -0.53919       -0.04598
O         -2.79467       -0.60877        0.23259
C         -0.43573       -1.49013        0.10592
C          0.49329       -0.26080       -0.09964
C          1.42503        0.19429        1.04565
O          2.58982        0.07564        0.20563
C          1.79251       -0.33696       -0.92082
H         -0.21036        2.70472       -0.36038
H         -1.95046        2.36921       -0.34353
H         -0.97474        2.01706        1.08368
H         -0.77163        0.60944       -1.64969
H         -0.36450       -2.02926        1.05485
H         -0.38003       -2.21751       -0.71194
H          1.28451        1.22163        1.40413
H          1.46994       -0.48043        1.91062
H          1.86259        0.37289       -1.75661
H          2.06995       -1.33701       -1.28009
