19
dsC7O2H10nsd_3576.xyz
C          2.66405       -0.65151        0.08035
C          1.26450       -0.11559        0.36064
O          0.36554       -1.08842       -0.21990
C         -0.97380       -1.03900       -0.02373
O         -1.66244       -1.90419       -0.49423
C         -1.53159        0.13947        0.75690
C         -1.45569        1.45438       -0.03955
C         -0.07088        1.92814       -0.38109
C          1.07776        1.27808       -0.20294
H          2.85063       -0.68054       -0.99705
H          3.41433       -0.00757        0.54845
H          2.77018       -1.66292        0.47841
H          1.10735       -0.11138        1.44762
H         -2.57294       -0.10295        0.97305
H         -1.00939        0.25549        1.71235
H         -2.04196        1.35436       -0.96384
H         -1.96099        2.24016        0.53720
H         -0.02802        2.91883       -0.82999
H          1.99999        1.77354       -0.49666
