19
dsC7O2H10nsd_0721.xyz
O         -2.83795       -0.69447        0.04226
C         -1.70623       -0.28253       -0.04368
C         -1.37184        1.20441        0.11229
C          0.05290        1.55354       -0.34320
C          1.04665        0.70896        0.44840
O          2.28653        0.43740       -0.24166
C          2.10337       -0.98832       -0.10822
C          0.70413       -0.80351        0.51830
C         -0.51538       -1.19812       -0.32063
H         -2.13344        1.78023       -0.42144
H         -1.50235        1.44870        1.17613
H          0.17623        1.33134       -1.40868
H          0.25270        2.62194       -0.21769
H          1.23756        1.16202        1.43115
H          2.13559       -1.50030       -1.07821
H          2.85417       -1.43598        0.55502
H          0.60871       -1.19533        1.53312
H         -0.27637       -1.08800       -1.38829
H         -0.82304       -2.23457       -0.16544
