19
dsC7O2H10nsd_3545.xyz
C          1.11118        1.94510       -0.40706
C          0.61861        0.89782        0.59879
C         -0.91543        0.97376        0.79028
C         -1.50348       -0.06763       -0.17681
O         -2.60208       -0.02551       -0.67251
C         -0.45118       -1.09454       -0.43257
C          0.23166       -1.65522        0.82420
C          0.86125       -0.52933        0.07537
O          2.01632       -0.77441       -0.66532
H          2.17694        1.82548       -0.61340
H          0.57898        1.85368       -1.36047
H          0.94073        2.95436       -0.02035
H          1.14306        1.04528        1.55160
H         -1.21736        0.71269        1.81141
H         -1.33215        1.96051        0.57788
H         -0.52077       -1.72804       -1.30685
H         -0.22512       -1.49749        1.79573
H          0.68230       -2.63130        0.68312
H          2.74373       -0.91565       -0.04924
