19
dsC7O2H10nsd_1946.xyz
C         -2.58845        0.11219       -0.46202
C         -1.19270       -0.08758        0.04205
O         -0.86025       -1.32983        0.67670
C         -0.12795       -0.93795       -0.48884
C          1.11944       -0.04948       -0.16917
C          2.50621       -0.59039       -0.36195
C          0.60713        1.33478       -0.68466
C         -0.30043        1.09202        0.55109
O          0.80909        0.40808        1.18078
H         -2.95374       -0.79044       -0.95827
H         -3.27012        0.34577        0.36352
H         -2.63078        0.94396       -1.17379
H         -0.18975       -1.58032       -1.36168
H          2.65760       -0.89029       -1.40422
H          3.25839        0.15967       -0.10303
H          2.65959       -1.46900        0.27252
H          1.33380        2.13434       -0.52754
H          0.15045        1.39376       -1.67765
H         -0.74575        1.88503        1.15132
