19
dsC7O2H10nsd_0953.xyz
O         -2.87045       -0.66322       -0.57913
C         -2.64231        0.18818        0.23759
O         -1.44947        0.71917        0.52816
C         -0.30718        0.22087       -0.23180
C          0.25563       -1.03971        0.42513
C          1.64155       -1.35673       -0.15162
C          2.62923       -0.20901        0.11030
C          2.00559        1.14223       -0.12280
C          0.69703        1.33623       -0.27644
H         -3.40308        0.66628        0.87509
H         -0.67917       -0.01481       -1.23534
H          0.33105       -0.85858        1.50420
H         -0.43622       -1.87263        0.27477
H          2.02218       -2.29122        0.27254
H          1.55308       -1.51804       -1.23358
H          3.00191       -0.25620        1.14462
H          3.51830       -0.32058       -0.52274
H          2.67869        1.99550       -0.16351
H          0.29535        2.33045       -0.45052
