19
dsC7O2H10nsd_5770.xyz
C          3.17712        0.03456       -0.40787
C          1.97362       -0.55360        0.33489
C          0.64116       -0.31911       -0.38268
C          0.17752        1.18495       -0.43095
C         -1.15548        1.04384        0.32576
O         -0.80460        0.13541        1.42242
C         -0.57389       -0.88172        0.38948
C         -1.77621       -0.21804       -0.31878
O         -2.77053       -0.53810       -0.88808
H          4.10614       -0.15918        0.13657
H          3.27840       -0.40345       -1.40713
H          3.08732        1.11907       -0.53070
H          2.12065       -1.63396        0.46196
H          1.90664       -0.12848        1.34295
H          0.68481       -0.75214       -1.38899
H          0.86257        1.84370        0.10900
H          0.04888        1.57179       -1.44516
H         -1.71681        1.92496        0.63000
H         -0.56057       -1.90612        0.75768
