19
dsC7O2H10nsd_4631.xyz
O          3.86965        0.74855       -0.37866
C          3.26464       -0.50127       -0.07310
C          1.82286       -0.41215        0.15684
C          0.64304       -0.29807        0.37702
C         -0.78718       -0.18140        0.60713
C         -1.39912        1.20147        0.23492
C         -2.80059        0.83763       -0.32216
O         -2.94873       -0.57322       -0.18665
C         -1.65490       -1.13447       -0.24806
H          3.60840        1.36870        0.30998
H          3.47071       -1.14752       -0.93370
H          3.74412       -0.97469        0.79890
H         -1.00880       -0.39241        1.65983
H         -1.45023        1.86093        1.10343
H         -0.78735        1.69462       -0.52337
H         -3.62139        1.30822        0.22586
H         -2.88348        1.12954       -1.37934
H         -1.70180       -2.15217        0.14562
H         -1.27001       -1.16828       -1.28018
