19
dsC7O2H10nsd_2200.xyz
C         -1.12592        1.92365       -0.42314
C         -0.09804        0.83474       -0.34548
C          1.32681        0.83575       -0.90549
C          1.53095       -0.47399       -0.10819
O          0.66144       -1.41883       -0.78502
C         -0.44838       -0.69589       -0.24349
C         -1.80933       -1.29682       -0.32713
C          0.32592       -0.03800        0.84150
O          0.10383        0.01690        2.19164
H         -0.71977        2.88171       -0.07702
H         -1.47770        2.06906       -1.45114
H         -1.99965        1.69755        0.19700
H          1.47125        0.75719       -1.98792
H          1.91483        1.66579       -0.50082
H          2.50767       -0.87999        0.14674
H         -2.54276       -0.66461        0.17983
H         -2.11958       -1.41316       -1.37107
H         -1.82353       -2.28273        0.14751
H          0.45496        0.84803        2.53247
