19
dsC7O2H10nsd_1035.xyz
C          3.64879       -0.00002       -0.58153
C          2.31994       -0.00000        0.01322
C          1.21844        0.00002        0.49898
C         -0.11274        0.00003        1.09680
C         -0.93823        1.24270        0.68821
O         -1.32540        1.16917       -0.67236
C         -2.05612       -0.00003       -0.93007
O         -1.32536       -1.16921       -0.67232
C         -0.93820       -1.24268        0.68826
H          3.78959       -0.86562       -1.23825
H          3.81458        0.90082       -1.18269
H          4.43070       -0.03514        0.18532
H         -0.02110        0.00007        2.19195
H         -1.83118        1.30465        1.33398
H         -0.35770        2.15978        0.80397
H         -2.98408       -0.00004       -0.32373
H         -2.29729       -0.00005       -1.99445
H         -1.83115       -1.30463        1.33402
H         -0.35763       -2.15973        0.80405
