19
dsC7O2H10nsd_2629.xyz
C         -2.33974       -0.00014        0.19424
C         -0.85114       -0.00005        0.51567
C         -0.11887        1.25868        0.01581
O         -0.70174        2.15255       -0.54701
C          1.38213        1.27472        0.26705
C          2.04293        0.00012       -0.28945
C          1.38229       -1.27457        0.26706
C         -0.11873       -1.25874        0.01592
O         -0.70147       -2.15259       -0.54707
H         -2.81828       -0.89126        0.60511
H         -2.81837        0.89097        0.60503
H         -2.49843       -0.00020       -0.88603
H         -0.68839       -0.00000        1.60650
H          1.79801        2.17796       -0.18396
H          1.55139        1.32693        1.35160
H          1.96706        0.00011       -1.38341
H          3.10957        0.00019       -0.04758
H          1.79827       -2.17775       -0.18398
H          1.55161       -1.32678        1.35160
