19
dsC7O2H10nsd_2978.xyz
C          3.04142        0.41630       -0.42273
C          1.79884       -0.37665       -0.05490
O          1.86000       -1.42416        0.54839
C          0.47778        0.23260       -0.47967
C         -0.01024        1.34655        0.53136
C         -1.25023        0.50497        0.82929
C         -2.00803        0.19008       -0.42976
O         -3.24681       -0.44997       -0.32343
C         -0.76206       -0.59299       -0.14499
H          2.92274        1.47718       -0.17859
H          3.91153        0.00693        0.09174
H          3.20376        0.35539       -1.50551
H          0.55439        0.57606       -1.51928
H          0.65859        1.43661        1.39142
H         -0.17903        2.34346        0.11071
H         -1.72361        0.40153        1.79904
H         -2.04350        0.90470       -1.25051
H         -3.17172       -1.16382        0.31882
H         -0.76360       -1.67013       -0.02911
