19
dsC7O2H10nsd_1409.xyz
C         -1.68388        1.39081       -0.01158
C         -1.22992       -0.05144       -0.01041
O         -2.32681       -0.94270       -0.08272
C         -0.07720       -0.66450        0.77507
C         -0.07878       -0.66903       -0.75989
C          1.23332        0.10989       -0.97332
C          2.20809       -0.61554       -0.00240
C          1.24225        0.10636        0.97987
O          1.16974        1.19207        0.00502
H         -2.30669        1.58157        0.87307
H         -0.84788        2.08429       -0.00026
H         -2.30225        1.57313       -0.89684
H         -2.91098       -0.73690        0.65565
H         -0.27332       -1.55917        1.35410
H         -0.27233       -1.56269       -1.34090
H          1.50922        0.43433       -1.97633
H          2.24449       -1.70792       -0.00422
H          3.20416       -0.16936       -0.00743
H          1.52885        0.42838        1.98083
