19
dsC7O2H10nsd_0288.xyz
C          2.09573       -0.43063        0.20150
C          1.12448        0.39651       -0.60077
O          0.61550        1.63825       -0.21648
C         -0.82319        1.56030       -0.26429
C         -1.35930        0.25778        0.39620
C         -0.27098       -0.22825        1.35076
C          0.62648       -0.75655        0.23430
C         -0.32187       -1.65844       -0.51302
O         -1.51236       -0.83324       -0.54720
H          2.78111       -1.04676       -0.37173
H          2.51538       -0.02877        1.11773
H          1.15243        0.24511       -1.68128
H         -1.18410        2.44083        0.27612
H         -1.17517        1.60977       -1.30435
H         -2.34631        0.43572        0.83068
H          0.17755        0.56983        1.94071
H         -0.61788       -1.02752        2.01170
H         -0.01154       -1.87919       -1.53935
H         -0.54464       -2.60350        0.00121
