19
dsC7O2H10nsd_3223.xyz
O          2.52975       -0.97132       -0.00453
C          1.59948        0.02534       -0.36368
C          0.81700        0.70919        0.79483
C         -0.00000        1.75315       -0.00000
C         -0.81700        0.70919       -0.79484
C         -1.59948        0.02534        0.36368
O         -2.52975       -0.97132        0.00453
C         -0.21010       -0.50563        0.76108
C          0.21010       -0.50563       -0.76107
H          2.08499       -1.62368        0.54760
H          2.13273        0.68609       -1.05423
H          1.32375        1.02013        1.70796
H         -0.63716        2.39407        0.61629
H          0.63715        2.39407       -0.61629
H         -1.32375        1.02012       -1.70796
H         -2.13273        0.68609        1.05422
H         -2.08498       -1.62368       -0.54760
H         -0.08026       -1.33891        1.45221
H          0.08026       -1.33892       -1.45220
