19
dsC7O2H10nsd_3485.xyz
O          2.46756       -0.36524        0.30653
C          1.29796       -0.27943       -0.50145
C          0.88605        1.16480       -0.69832
C         -0.22418        1.64091       -0.13487
C         -1.10836        0.71892        0.67597
C         -2.06165       -0.07437       -0.24716
C         -1.11161       -1.17057       -0.79646
C          0.13317       -1.06408        0.12506
O         -0.31394       -0.31462        1.26531
H          2.21455       -0.00486        1.16576
H          1.57499       -0.73515       -1.45958
H          1.55846        1.80069       -1.26685
H         -0.53829        2.67300       -0.26520
H         -1.61731        1.24850        1.48466
H         -2.86761       -0.51358        0.34660
H         -2.50722        0.54183       -1.03108
H         -1.56574       -2.16109       -0.72953
H         -0.84760       -1.00009       -1.84331
H          0.49865       -2.02729        0.48723
