19
dsC7O2H10nsd_5121.xyz
C          2.74914       -0.81302        0.26738
C          2.04511        0.34311       -0.45758
C          0.57251        0.36421       -0.19265
O          0.12065        0.78908        1.09956
C         -0.43145        1.44436       -0.04507
C         -1.57022        0.55124       -0.59575
C         -2.23514       -0.41769        0.41049
O         -1.21273       -1.42454        0.18292
C         -0.53817       -0.58527       -0.76373
H          3.82200       -0.81017        0.05462
H          2.61212       -0.72820        1.34895
H          2.34530       -1.78134       -0.04528
H          2.47046        1.30212       -0.14069
H          2.20801        0.26330       -1.53989
H         -0.33114        2.52344       -0.09340
H         -2.15363        0.94605       -1.42496
H         -2.26200       -0.08961        1.45311
H         -3.22011       -0.78500        0.10073
H         -0.30497       -1.07866       -1.71164
