19
dsC7O2H10nsd_3068.xyz
C         -2.42566       -1.00345        0.21855
C         -1.26000       -0.38106       -0.56657
C         -1.27080        1.13526       -0.48854
C         -0.22654        1.77080        0.04406
C          0.91212        0.90272        0.51928
O          0.36353       -0.24216        1.26026
C          0.10137       -0.86707       -0.03866
C          1.31225       -0.08836       -0.61015
O          2.54157       -0.73741       -0.42308
H         -2.45460       -2.08983        0.08259
H         -2.31110       -0.79016        1.28489
H         -3.38659       -0.59670       -0.11220
H         -1.34547       -0.68695       -1.61995
H         -2.15121        1.66305       -0.84508
H         -0.16376        2.85093        0.12018
H          1.69915        1.41848        1.07312
H          0.18262       -1.95826        0.00353
H          1.28089        0.26828       -1.64099
H          2.55288       -1.05532        0.48861
