19
dsC7O2H10nsd_2937.xyz
O         -2.76192        0.45041        0.02571
C         -1.71739       -0.48802       -0.03894
C         -0.56385       -0.26325        0.95886
C          0.30662       -1.16133        0.02899
C          1.81651       -0.97988        0.09722
O          2.21923        0.30616       -0.33560
C          1.36734        1.33419        0.14201
C         -0.09934        0.93906        0.07405
C         -0.47112       -0.20446       -0.93141
H         -3.30145        0.35402       -0.76504
H         -2.10195       -1.51668       -0.08901
H         -0.61777       -0.30138        2.04855
H          0.02461       -2.21959       -0.00246
H          2.17113       -1.17980        1.12448
H          2.32002       -1.69046       -0.56696
H          1.63321        1.61616        1.17674
H          1.56461        2.20317       -0.49476
H         -0.76521        1.80204        0.08415
H         -0.41836       -0.17781       -2.02125
