19
dsC7O2H10nsd_3281.xyz
C         -1.38055        1.65932        0.58288
C         -0.43068        0.58767        0.10683
C         -0.92942       -0.67890       -0.54096
O         -2.32142       -0.82694       -0.57554
C         -0.24795       -0.76221        0.80684
C          1.24557       -1.08269        0.91544
C          1.95737        0.03100        0.15973
O          1.62132        0.10691       -1.23262
C          0.96314        1.00457       -0.32333
H         -0.97577        2.19717        1.44773
H         -1.57419        2.39378       -0.20762
H         -2.33817        1.21912        0.86620
H         -0.39783       -1.03549       -1.41950
H         -2.51869       -1.76704       -0.51021
H         -0.89573       -1.01591        1.64016
H          1.55787       -1.06081        1.96608
H          1.51020       -2.06920        0.51781
H          2.98746        0.28738        0.39755
H          1.18069        2.05861       -0.47751
