19
dsC7O2H10nsd_0923.xyz
O          3.26872       -0.36829        0.82610
C          2.90035       -0.46999       -0.31072
O          1.66144       -0.23646       -0.77358
C          0.69603        0.18643        0.18076
C          0.15939        1.58174        0.05200
C         -0.68853        0.38443       -0.34731
C         -1.87955       -0.03289        0.45441
C         -2.71407       -1.21443        0.02344
C         -3.27307        0.18317       -0.08329
H          3.53016       -0.78667       -1.15638
H          0.85592       -0.23828        1.16402
H         -0.08341        2.11560        0.96486
H          0.56313        2.19644       -0.74437
H         -0.78475        0.23455       -1.41990
H         -1.76016        0.09921        1.52700
H         -2.43529       -1.72041       -0.89505
H         -3.10946       -1.87290        0.78881
H         -3.36853        0.61660       -1.07346
H         -4.05224        0.48316        0.60851
