19
dsC7O2H10nsd_3062.xyz
C         -1.21568        1.82697        0.43995
C         -1.16012        0.61427       -0.47714
C         -1.24059       -0.84206        0.07308
C         -0.43243       -1.28148       -1.17421
C          0.18220        0.14800       -1.13172
C          1.28224        0.16255       -0.09134
O          2.37160        0.64063       -0.24337
O          0.96728       -0.43032        1.09541
C         -0.35026       -0.98330        1.29871
H         -1.03725        2.74622       -0.12755
H         -2.20293        1.91444        0.90697
H         -0.46831        1.78197        1.23721
H         -1.89970        0.72239       -1.27767
H         -2.22091       -1.28552        0.26559
H          0.24480       -2.13389       -1.07656
H         -1.06702       -1.41411       -2.05294
H          0.54014        0.62407       -2.04325
H         -0.21274       -2.03819        1.56159
H         -0.77927       -0.46966        2.16630
