19
dsC7O2H10nsd_5827.xyz
O         -2.83861       -1.06909        0.05701
C         -2.25941        0.19996       -0.15240
C         -0.80585        0.08622       -0.60560
C         -0.04646        1.42733       -0.63157
C          0.78495        1.39066        0.66172
C          1.06431       -0.11653        0.81387
O         -0.13515       -0.74871        0.36381
C          2.23013       -0.55545        0.03701
C          3.18513       -0.90662       -0.60288
H         -2.20792       -1.55702        0.60068
H         -2.85108        0.70253       -0.92580
H         -2.30231        0.82144        0.75929
H         -0.77048       -0.42455       -1.57516
H          0.60925        1.48027       -1.50397
H         -0.72576        2.28330       -0.66915
H          1.69672        1.98756        0.61096
H          0.19386        1.72848        1.51806
H          1.20264       -0.40593        1.86108
H          4.02849       -1.22713       -1.16346
