19
dsC7O2H10nsd_3789.xyz
O          3.44342        0.38824       -0.23224
C          2.32117       -0.10147        0.44014
C          1.68094       -1.39171       -0.00744
C          1.02715       -0.05583       -0.31560
C         -0.24116        0.35736        0.35553
C         -0.94947        1.61434       -0.01903
C         -1.55731        0.27562       -0.42232
C         -2.75719       -0.19743        0.29624
O         -3.63363       -0.87564       -0.17978
H          4.20130       -0.14792        0.02465
H          2.28267        0.13174        1.50523
H          2.14663       -1.91538       -0.83487
H          1.22481       -2.03057        0.74203
H          1.13124        0.27823       -1.34424
H         -0.31459        0.06698        1.40164
H         -1.45335        2.17887        0.75893
H         -0.54284        2.21877       -0.82206
H         -1.50266       -0.01498       -1.46571
H         -2.79638        0.12811        1.36540
