19
dsC7O2H10nsd_3210.xyz
O          2.97302       -0.27681        0.49927
C          1.57564       -0.24062        0.45470
C          1.00835        0.99049       -0.21294
C         -0.42395        1.37312        0.12243
C         -1.18453        0.06066       -0.07844
C         -1.92936       -0.62506        1.03708
C         -2.66764       -0.05977       -0.16693
O         -0.43523       -0.76197       -0.95892
C          0.90615       -0.35053       -0.89593
H          3.24867       -1.19374        0.39294
H          1.06066       -0.64709        1.32558
H          1.71101        1.74366       -0.54753
H         -0.55305        1.76290        1.13657
H         -0.76980        2.13917       -0.58098
H         -1.83812       -1.70382        1.09676
H         -2.02582       -0.11639        1.99123
H         -3.05878       -0.76868       -0.88795
H         -3.26588        0.83616       -0.03861
H          1.48084       -0.63158       -1.77070
