19
dsC7O2H10nsd_0505.xyz
C         -2.06633       -0.59504       -0.46757
C         -1.92016        0.82812        0.17987
C         -0.41219        0.59164        0.19456
C          0.80264        1.46055        0.00934
O          1.84153        0.61875       -0.51692
C          1.84607       -0.73984       -0.07000
C          0.42628       -1.24499        0.21328
O         -0.07087       -0.36378        1.26259
C         -0.53427       -0.60448       -0.78638
H         -2.37613       -1.36604        0.23942
H         -2.71120       -0.64021       -1.34668
H         -2.20770        1.62392       -0.51411
H         -2.39026        1.00104        1.15034
H          0.65379        2.25102       -0.73391
H          1.10665        1.91527        0.96316
H          2.33521       -1.31366       -0.86570
H          2.43226       -0.84503        0.85532
H          0.38664       -2.30618        0.48296
H         -0.24671       -0.53565       -1.83481
