19
dsC7O2H10nsd_2784.xyz
C          0.84716       -1.53395       -0.94904
C          0.77929       -0.41437        0.08729
C          2.14094       -0.23026        0.78038
C         -0.36832       -0.40613        1.12910
C         -1.70359       -0.14745        0.54600
O         -2.07157       -0.65838       -0.70118
C         -0.78480        1.04922        0.71068
C          0.28790        0.99577       -0.34328
O          0.71775        1.80221       -1.11954
H         -0.11171       -1.68110       -1.44398
H          1.60187       -1.29331       -1.70546
H          1.14310       -2.47669       -0.47439
H          2.11134        0.56475        1.53258
H          2.44260       -1.15836        1.27784
H          2.90616        0.02883        0.04334
H         -0.25618       -0.77663        2.14134
H         -2.51295       -0.15013        1.27847
H         -2.61145        0.00212       -1.14864
H         -1.07359        1.91292        1.29784
