19
dsC7O2H10nsd_5048.xyz
C          2.77904       -0.12423       -0.00629
O          1.60517        0.46281       -0.55055
C          0.44500       -0.02993       -0.00394
C         -0.08980        0.35251        1.35395
C         -0.89232        0.67054        0.10274
C         -1.30993        2.04723       -0.32117
C         -1.56882       -0.63639       -0.44482
O         -1.24712       -1.76093        0.39113
C         -0.28108       -1.30685       -0.56625
H          2.80426       -1.20978       -0.17482
H          3.62916        0.33505       -0.51528
H          2.85438        0.06297        1.07314
H         -0.42507       -0.38942        2.06805
H          0.40159        1.22497        1.77554
H         -1.48402        2.09673       -1.40226
H         -2.23409        2.35759        0.18077
H         -0.53326        2.77861       -0.07899
H         -2.47126       -0.69576       -1.04232
H          0.10141       -2.01320       -1.29381
