19
dsC7O2H10nsd_4955.xyz
C         -2.26432       -1.03659        0.24346
O         -1.08170       -1.22130       -0.52233
C         -0.11565       -0.27595       -0.28713
C         -0.13539        1.25363       -0.51477
O         -0.97830        2.08454        0.24723
C          1.29883        0.95064       -0.03290
C          1.34037       -0.40127       -0.82668
C          1.81407       -1.19499        0.40810
C          0.83512       -0.15287        0.98483
H         -2.71786       -0.05713        0.05235
H         -2.95990       -1.82468       -0.05186
H         -2.05970       -1.12731        1.32009
H         -0.23914        1.58149       -1.55393
H         -0.84792        1.87426        1.17859
H          2.13637        1.63079        0.10656
H          1.61499       -0.51217       -1.87605
H          1.50323       -2.24184        0.46208
H          2.86647       -1.08767        0.68776
H          0.54540        0.00277        2.02566
