19
dsC7O2H10nsd_5003.xyz
C          2.69185       -0.85214        0.34115
C          1.96820        0.17757       -0.53407
C          0.51659        0.35022       -0.17772
C         -0.45095        1.37785       -0.81951
C         -1.35836        0.90168        0.36531
C         -0.03758        0.80088        1.20141
C         -1.50175       -0.56329       -0.02398
O         -2.43496       -1.30687       -0.04567
O         -0.22237       -0.90895       -0.38637
H          2.21182       -1.83090        0.26395
H          3.73568       -0.95627        0.03261
H          2.68324       -0.55393        1.39474
H          2.45289        1.15771       -0.45001
H          2.03033       -0.11466       -1.58921
H         -0.11841        2.41143       -0.70413
H         -0.78481        1.18225       -1.84096
H         -2.25646        1.41514        0.69610
H          0.33519        1.77782        1.51589
H          0.00124        0.08132        2.02175
