19
dsC7O2H10nsd_3533.xyz
C         -1.88628       -1.84401        0.41829
C         -1.14916       -0.80294       -0.39214
O         -1.89110        0.47009       -0.45939
C         -0.83922        1.17429        0.06729
O         -0.76882        2.34666        0.25205
C          0.05244       -0.06411        0.24675
C          1.38081       -0.06470       -0.45827
C          2.61679        0.41365        0.26044
C          2.45502       -1.05011       -0.05843
H         -2.84401       -2.09124       -0.04870
H         -1.29083       -2.76070        0.48231
H         -2.08115       -1.48281        1.43273
H         -0.95118       -1.14795       -1.41155
H          0.17798       -0.30852        1.30703
H          1.32337        0.17708       -1.51632
H          3.34062        0.98977       -0.30398
H          2.51116        0.72681        1.29338
H          3.06952       -1.48042       -0.84102
H          2.24149       -1.72842        0.76128
