19
dsC7O2H10nsd_2947.xyz
C          1.87014        1.23431        0.00557
C          0.43084        0.74641        0.00292
O         -0.34826        1.90680        0.00730
C         -0.02887       -0.39781        1.03374
C          0.92900       -1.51426        0.67273
C          0.92878       -1.51287       -0.67092
C         -0.03070       -0.39340       -1.03070
C         -1.16478       -0.74446       -0.01004
O         -2.29168        0.11726       -0.08941
H          2.03094        1.86490        0.88549
H          2.59468        0.42190        0.01158
H          2.03758        1.85834       -0.87774
H         -1.27800        1.63582       -0.02841
H         -0.24249       -0.17908        2.08106
H          1.48740       -2.13308        1.36106
H          1.48919       -2.12573       -1.36262
H         -0.24773       -0.17402       -2.07604
H         -1.48563       -1.79195       -0.01101
H         -2.87280       -0.07707        0.65383
