19
dsC7O2H10nsd_2811.xyz
O         -2.81732        0.19888        0.07664
C         -1.44070        0.36986       -0.11069
C         -0.60154       -0.33014        0.92144
C         -0.63569       -0.83874       -0.52124
C          0.82122       -0.61723       -0.96982
C          1.59588       -1.03396        0.29289
C          0.88030        0.05243        1.14223
C          1.24478        1.27455        0.29067
O          1.10681        0.79342       -1.06416
H         -3.23522        0.21381       -0.79088
H         -1.14603        1.34075       -0.49872
H         -1.13760       -0.84465        1.71033
H         -1.15859       -1.74674       -0.80209
H          1.09519       -1.08118       -1.91744
H          1.36885       -2.05103        0.61988
H          2.67810       -0.89529        0.20638
H          1.17243        0.13464        2.18915
H          0.58198        2.13240        0.44561
H          2.27948        1.59826        0.46491
