19
dsC7O2H10nsd_5314.xyz
C          0.37553        2.47254        0.25184
C          0.52094        1.01447       -0.05174
C         -0.43775        0.11614       -0.34018
C         -1.91810        0.30471       -0.44775
O         -2.63023       -0.60285        0.38933
C          0.16332       -1.25088       -0.46636
O          0.79638       -1.70675        0.75487
C          1.61069       -1.10872       -0.25658
C          1.89969        0.36766       -0.02975
H          0.93248        3.08071       -0.47267
H         -0.66481        2.80470        0.23649
H          0.79372        2.70762        1.23878
H         -2.19992        1.34769       -0.24261
H         -2.26125        0.07849       -1.46565
H         -2.22974       -0.55960        1.26437
H         -0.30165       -2.03127       -1.06074
H          2.35237       -1.76216       -0.70769
H          2.41929        0.54224        0.92083
H          2.54443        0.77291       -0.82160
