19
dsC7O2H10nsd_4212.xyz
C         -1.68233        1.26826        0.89553
C         -1.07319        0.66425       -0.38659
C          0.25151        1.36885       -0.76399
C          1.46740        0.84282       -0.02189
O          2.04308       -0.35841       -0.55274
C          1.43606       -0.42085        0.73858
C          0.17797       -1.25466        0.81922
C         -0.87614       -0.83991       -0.20623
O         -1.54154       -1.65515       -0.79762
H         -1.95050        2.31516        0.72277
H         -2.58848        0.73345        1.19583
H         -0.97699        1.24204        1.73252
H         -1.79219        0.77896       -1.20224
H          0.44650        1.25432       -1.83570
H          0.14743        2.44328       -0.57561
H          2.21068        1.58736        0.26376
H          2.14313       -0.55334        1.55873
H          0.40206       -2.31543        0.67448
H         -0.26161       -1.14982        1.82057
