19
dsC7O2H10nsd_5066.xyz
O         -2.74212       -0.80678       -0.05359
C         -1.40946       -0.81148       -0.55400
C         -0.57156        0.26438        0.07616
C          0.13586        0.07001        1.37278
C          0.99808        0.33274        0.15634
C          0.95478        1.81622       -0.22401
C         -0.60521        1.75423       -0.29341
C          1.91989       -0.68920       -0.35530
O          1.85991       -1.87065       -0.08993
H         -2.69669       -1.00327        0.88808
H         -0.92092       -1.78653       -0.41576
H         -1.50504       -0.63803       -1.63125
H          0.09489        0.83252        2.14741
H          0.20030       -0.95320        1.72992
H          1.38718        2.50452        0.50891
H          1.40753        2.01668       -1.19845
H         -1.15176        2.39728        0.40254
H         -0.98832        1.92857       -1.30105
H          2.69624       -0.30047       -1.05356
