19
dsC7O2H10nsd_1669.xyz
O          0.45422        1.47420       -0.75411
C         -0.06772        0.34295       -0.08629
C         -1.11120        0.71507        1.04755
C         -2.20401        0.06113        0.19337
O         -1.81444       -1.30502       -0.00042
C         -1.24379       -0.31446       -0.85935
C          1.06964       -0.56524        0.29396
C          2.29585       -0.68321       -0.57505
C          2.38520       -0.00210        0.76874
H         -0.27935        2.03802       -1.02117
H         -0.96146        0.27142        2.03449
H         -1.20578        1.80052        1.14206
H         -3.26355        0.28229        0.13660
H         -1.35414       -0.44705       -1.93094
H          0.72121       -1.47259        0.77470
H          2.74333       -1.66413       -0.69062
H          2.34777       -0.05057       -1.45297
H          2.89567       -0.51206        1.57829
H          2.49423        1.07590        0.76823
