19
dsC7O2H10nsd_1133.xyz
C         -2.64546       -0.91299        0.04462
C         -1.75373        0.30762        0.05828
O         -2.13336        1.41729       -0.23818
C         -0.30671        0.09396        0.50274
O          0.19119       -1.23664        0.21955
C          1.20454       -0.71144       -0.67115
C          2.56127       -0.47455        0.02999
C          2.12892        0.99286        0.34997
C          0.77378        0.75389       -0.36889
H         -2.24568       -1.65481       -0.65280
H         -2.64489       -1.39225        1.03040
H         -3.66006       -0.62789       -0.23498
H         -0.25623        0.32984        1.57777
H          1.18651       -1.20465       -1.64625
H          2.73151       -1.13369        0.88381
H          3.41964       -0.53903       -0.64387
H          2.05501        1.25854        1.40796
H          2.74932        1.74221       -0.14610
H          0.42655        1.48041       -1.10031
