19
dsC7O2H10nsd_2925.xyz
C          2.64626       -0.06383       -0.03069
C          1.32759       -0.82851        0.01950
C          0.16058       -0.48899       -0.94583
C         -0.78835       -1.24723        0.02368
O         -2.09110       -0.70360        0.00137
C         -1.82360        0.70144       -0.02768
C         -0.29592        0.70895       -0.01296
O          0.22564        1.99790       -0.03099
C          0.15546       -0.43297        0.96426
H          3.17648       -0.12348        0.92640
H          3.30261       -0.50011       -0.79143
H          2.53150        0.99020       -0.29661
H          1.54663       -1.90307        0.06496
H          0.14852       -0.52055       -2.03622
H         -0.80584       -2.33465        0.05861
H         -2.23989        1.15989       -0.93276
H         -2.25116        1.19723        0.85208
H          1.08631        1.99859        0.39419
H          0.13649       -0.41162        2.05601
