19
dsC7O2H10nsd_0645.xyz
O         -0.27938        1.97544        0.04973
C         -0.58136        0.82665       -0.18479
C          0.40762       -0.17399       -0.77315
C          1.48271       -0.56238        0.23112
C          2.88354       -0.86513       -0.24075
C          2.60388        0.39255        0.54473
C         -1.97996        0.36191        0.12910
C         -2.23366       -0.94398        0.77383
O         -2.50604       -0.74999       -0.60375
H         -0.11943       -1.05590       -1.14767
H          0.87803        0.32289       -1.62851
H          1.12462       -1.16360        1.06312
H          3.42596       -1.66893        0.24460
H          3.09046       -0.76924       -1.30158
H          2.95857        0.45042        1.56760
H          2.61085        1.34045        0.01945
H         -2.67781        1.17684        0.31229
H         -1.40171       -1.60839        1.00048
H         -3.10283       -1.04201        1.42191
