19
dsC7O2H10nsd_0919.xyz
O         -3.80448        0.21277       -0.33762
C         -2.75699       -0.01117        0.21150
C         -1.42869        0.60802       -0.18425
C         -0.35815       -0.44533       -0.37173
O          0.11179       -1.09003        0.82731
C          1.02070       -0.27935        0.10263
C          2.31539       -0.78034       -0.54067
C          2.89469        0.65243       -0.33524
C          1.71835        0.97524        0.63637
H         -2.69201       -0.70909        1.07490
H         -1.57219        1.19538       -1.09646
H         -1.12329        1.28258        0.62593
H         -0.52740       -1.13431       -1.20155
H          2.80738       -1.52365        0.09350
H          2.25716       -1.16881       -1.56013
H          3.90111        0.71690        0.08026
H          2.85262        1.25124       -1.24757
H          1.99789        0.85657        1.68718
H          1.20837        1.93428        0.51476
