19
dsC7O2H10nsd_5440.xyz
C          2.75540       -1.06183        0.11604
C          1.44515       -0.55872       -0.48422
C          0.14740       -0.94973        0.25442
C         -1.01678       -0.28486       -0.38227
C         -2.41540       -0.61965        0.09226
O         -3.34789        0.41004       -0.18117
C         -0.16026        0.53513        0.58995
C          1.13615        0.90814       -0.05899
O          1.80597        1.90284       -0.06004
H          2.89033       -2.13091       -0.07533
H          3.60054       -0.52337       -0.32117
H          2.78216       -0.90309        1.19924
H          1.41817       -0.74926       -1.56307
H          0.05360       -1.78727        0.93451
H         -0.96392       -0.04192       -1.44214
H         -2.78460       -1.50060       -0.44351
H         -2.39103       -0.87565        1.16435
H         -3.02572        1.21619        0.23590
H         -0.59419        0.98196        1.47779
