19
dsC7O2H10nsd_2056.xyz
C         -1.02044        2.01437       -0.40421
C         -1.01527        0.55083       -0.10221
O         -1.53645        0.11315        1.16266
C         -2.09329       -0.45240       -0.03474
C         -1.16348       -1.58544       -0.47363
C          0.00502       -0.53303       -0.54368
C          1.22098       -0.78792        0.35693
C          2.25823        0.30535        0.25331
O          3.37903        0.15398       -0.16167
H         -0.22977        2.53561        0.14726
H         -0.85552        2.19052       -1.47198
H         -1.97840        2.45699       -0.11832
H         -3.16361       -0.34819       -0.17419
H         -1.04565       -2.39538        0.25086
H         -1.41018       -2.00242       -1.45258
H          0.31895       -0.37741       -1.58069
H          0.86535       -0.83966        1.39413
H          1.69754       -1.73812        0.09789
H          1.91022        1.31049        0.58913
