19
dsC7O2H10nsd_1743.xyz
C         -2.46123        0.89242       -0.10512
C         -1.19833        0.10857        0.01801
C         -0.81305       -1.21871        0.56823
O         -0.12437       -1.67626       -0.60123
C         -0.02848       -0.27477       -0.97303
C          0.98665        0.33016        0.05360
C          2.35177       -0.32020        0.18613
O          1.07433        1.74023       -0.10831
C         -0.10161        0.04711        1.08365
H         -2.24805        1.94059       -0.33993
H         -3.11122        0.48990       -0.89011
H         -3.02085        0.87024        0.83625
H         -1.32593       -1.93746        1.19457
H          0.04916       -0.09865       -2.04593
H          2.86472        0.04340        1.08197
H          2.24823       -1.40549        0.24524
H          2.98151       -0.08625       -0.68248
H          1.69292        1.90994       -0.82747
H         -0.14449        0.37454        2.11536
