19
dsC7O2H10nsd_2245.xyz
C          0.85884        2.17197        0.11919
C          0.26488        0.79692        0.09682
C         -0.05031       -0.06180       -1.08939
O         -1.40489       -0.46221       -1.14946
C         -2.01180       -0.02604        0.07460
C         -0.83254        0.18934        1.02358
C          0.00258       -1.13120        1.14118
C          0.84890       -0.63303       -0.02223
O          2.11506       -1.06403       -0.36694
H          1.68384        2.24797       -0.59677
H          0.11965        2.93683       -0.14759
H          1.25525        2.42691        1.10932
H          0.39386        0.13783       -2.05788
H         -2.57644        0.90519       -0.08785
H         -2.70622       -0.80333        0.41054
H         -1.07110        0.70732        1.95235
H          0.57573       -1.15694        2.07378
H         -0.53304       -2.07900        1.01691
H          2.69373       -0.94984        0.39589
