19
dsC7O2H10nsd_2496.xyz
C          1.92625        1.32988        0.02819
C          0.60826        0.57715       -0.03021
C         -0.61920        1.48380       -0.19220
C         -1.88354        0.75185        0.25610
O         -1.89621       -0.59811       -0.19605
C         -0.65401       -1.21463       -0.06221
C          0.43921       -0.66898        0.91345
O          1.42776       -1.40651        0.10936
C          0.57424       -0.72793       -0.88505
H          1.95504        1.99681        0.89739
H          2.76476        0.63448        0.09257
H          2.05545        1.95246       -0.86466
H         -0.50201        2.39717        0.40262
H         -0.69808        1.79697       -1.24099
H         -1.93897        0.76202        1.35620
H         -2.79312        1.21969       -0.12900
H         -0.78346       -2.29687       -0.04688
H          0.52729       -0.74521        1.99858
H          0.81356       -0.86745       -1.94070
