19
dsC7O2H10nsd_2499.xyz
C         -1.70383        1.54373       -0.00122
C         -0.54102        0.57261       -0.04136
O          0.62517        1.37483       -0.20673
C          1.78373        0.73318        0.24733
O          1.85662       -0.59487       -0.20931
C          0.60921       -1.22152       -0.06241
C         -0.57805       -0.71201       -0.93686
C         -1.49959       -1.36893        0.12280
C         -0.42307       -0.63750        0.96495
H         -1.62047        2.19102        0.87705
H         -1.66849        2.18363       -0.88796
H         -2.67390        1.04581        0.02414
H          2.64607        1.27461       -0.14837
H          1.80801        0.74130        1.35108
H          0.77357       -2.30082       -0.04195
H         -0.66030       -0.75411       -2.02335
H         -2.52460       -1.00991        0.19778
H         -1.46665       -2.46070        0.16737
H         -0.35186       -0.60791        2.05327
