19
dsC7O2H10nsd_1780.xyz
C          2.92802       -0.55271       -0.27311
C          1.55334       -0.01919       -0.02352
C          0.89036        0.44257        1.30364
C         -0.19536        0.34422        0.20189
C          0.75463        1.07193       -0.78427
O          0.39824       -0.94424       -0.22635
C         -1.67331        0.43669        0.33360
C         -2.51488       -0.76543        0.28776
O         -2.43652        0.12131       -0.83101
H          3.67531        0.22489       -0.08630
H          3.13712       -1.40036        0.38637
H          3.02628       -0.88608       -1.31052
H          0.83041       -0.32096        2.08090
H          1.14616        1.43261        1.69081
H          0.56384        0.86062       -1.83670
H          0.99808        2.11957       -0.58873
H         -2.02523        1.30952        0.88590
H         -2.03403       -1.73041        0.14758
H         -3.46845       -0.77450        0.81372
