19
dsC7O2H10nsd_3217.xyz
O         -2.96604       -0.84084        0.06574
C         -1.72575       -0.34269       -0.34495
C         -1.30879        1.02989        0.07937
C          0.00112        1.40962       -0.61625
C          0.68697        0.16709        0.03770
C          1.96564        0.33351        0.88645
C          2.58013       -0.68545       -0.09151
O          1.34221       -0.78777       -0.82336
C         -0.62965       -0.22832        0.68422
H         -3.14895       -0.51995        0.95532
H         -1.50481       -0.70510       -1.34550
H         -2.00524        1.71712        0.54543
H         -0.01825        1.40431       -1.71092
H          0.43464        2.35135       -0.26961
H          2.40505        1.33275        0.86986
H          1.87757       -0.00369        1.92116
H          3.39834       -0.31252       -0.71927
H          2.87827       -1.64628        0.34441
H         -0.74392       -0.69101        1.65982
