19
dsC7O2H10nsd_2461.xyz
C         -2.54300       -0.24562        0.01065
C         -1.04813       -0.10346       -0.04389
O         -0.61255        0.96700       -0.86327
C          0.42039        1.66927       -0.16460
C          1.07966        0.61623        0.73511
O          1.97177       -0.20401       -0.01274
C          1.21421       -1.20652       -0.69658
C         -0.12453       -1.30753        0.02005
C         -0.11732       -0.26661        1.12152
H         -3.00445        0.66098        0.41520
H         -2.94990       -0.41374       -0.99169
H         -2.82954       -1.09205        0.64148
H          1.11470        2.08680       -0.89774
H         -0.00981        2.48447        0.43819
H          1.63337        1.04480        1.57318
H          1.08792       -0.93139       -1.75201
H          1.77067       -2.14852       -0.64416
H         -0.56090       -2.28653        0.18448
H         -0.41348       -0.44328        2.14746
