19
dsC7O2H10nsd_1355.xyz
C         -3.52615        0.30347        0.03520
C         -2.14754        0.01244       -0.49496
O         -1.55326       -1.23440       -0.09771
C         -0.95896       -0.01860        0.36369
C          0.42927        0.26550       -0.16157
O          0.74335        1.59231        0.21146
C          1.44503       -0.74750        0.42102
C          2.80435       -0.41758        0.01356
C          3.89831       -0.06754       -0.34493
H         -4.27839       -0.28098       -0.50459
H         -3.59489        0.05307        1.09716
H         -3.76755        1.36410       -0.09163
H         -1.98867        0.25010       -1.54834
H         -1.08372        0.17970        1.43010
H          0.42518        0.14785       -1.25650
H          1.67966        1.72797        0.01930
H          1.37324       -0.73354        1.51594
H          1.16964       -1.75418        0.08796
H          4.87893        0.20150       -0.65151
