19
dsC7O2H10nsd_4239.xyz
O          2.51226       -0.73931       -0.34713
C          1.52164       -0.21723        0.50710
C          1.15881        1.31320        0.27310
C         -0.02986        0.79485       -0.60362
O         -1.43145        1.09178       -0.60645
C         -1.92939       -0.13564       -0.00375
C         -1.05924       -0.23567        1.25904
C          0.02938       -0.51014        0.16714
C         -1.06614       -1.32803       -0.57951
H          2.26626       -0.55933       -1.26019
H          1.83410       -0.48986        1.51689
H          0.85744        1.81795        1.19133
H          1.92505        1.90301       -0.23474
H          0.30498        0.71442       -1.64676
H         -3.01806       -0.13244       -0.00960
H         -0.99300        0.66033        1.87780
H         -1.24917       -1.12201        1.86803
H         -0.97408       -1.42045       -1.66420
H         -1.35122       -2.27936       -0.12691
