19
dsC7O2H10nsd_3488.xyz
O         -2.57189       -0.67314        0.34803
C         -1.35118       -0.42965       -0.34958
C         -1.22514        1.01068       -0.77910
C         -0.24341        1.64231       -0.13445
C          0.54683        0.73667        0.78139
C          2.02448        0.55081        0.37105
C          1.92713       -0.57554       -0.65946
O          0.90511       -1.43588       -0.17025
C         -0.08033       -0.66696        0.51826
H         -2.70352        0.05920        0.96037
H         -1.35241       -1.13973       -1.18220
H         -1.91351        1.46266       -1.48509
H          0.00056        2.69467       -0.24538
H          0.47057        1.05958        1.82513
H          2.47654        1.46244       -0.02901
H          2.61528        0.22415        1.23225
H          1.66552       -0.17804       -1.65215
H          2.84292       -1.16518       -0.75713
H         -0.35798       -1.21747        1.42225
