19
dsC7O2H10nsd_0415.xyz
C         -1.73247       -1.01649       -0.67075
C         -1.62184       -0.82759        0.83141
C         -0.74299       -0.04963       -0.11266
O         -1.01088        1.31824       -0.31942
C          0.09183        2.04011        0.22596
C          1.32086        1.20776       -0.16204
C          0.76811       -0.21452       -0.10008
C          1.50737       -1.39420       -0.55335
O          1.33656       -1.12555        0.84501
H         -1.37282       -1.94091       -1.10965
H         -2.59370       -0.58468       -1.16856
H         -2.41437       -0.27618        1.32414
H         -1.15303       -1.60915        1.41789
H          0.07669        3.04428       -0.20269
H          0.00070        2.12001        1.31999
H          1.63310        1.44931       -1.18287
H          2.17462        1.33020        0.50742
H          0.97448       -2.26604       -0.92999
H          2.52359       -1.28092       -0.93131
