19
dsC7O2H10nsd_2791.xyz
C         -2.61955       -1.02984       -0.30475
C         -1.12227       -0.79407       -0.32332
C         -0.49377       -0.41354        1.01307
C          1.04433       -0.22368        0.96883
C          1.68139       -0.43253       -0.38092
O          3.07250       -0.30634       -0.46732
C          0.88233        0.82349       -0.14157
C         -0.66125        0.62259       -0.07261
O         -1.51762        1.70963       -0.07038
H         -3.05436       -0.87248       -1.29836
H         -2.84746       -2.05687       -0.00130
H         -3.12050       -0.34725        0.38650
H         -0.59312       -1.44130       -1.01621
H         -1.04688       -0.53535        1.93612
H          1.65568       -0.17037        1.86270
H          1.36806       -1.20995       -1.06755
H          3.35849        0.37728        0.14851
H          1.33100        1.80743       -0.21765
H         -1.75725        1.90790       -0.98357
