19
dsC7O2H10nsd_4567.xyz
C         -0.39705        2.21905       -0.07522
C         -0.52861        0.76718       -0.51972
C         -1.88960        0.11303       -0.25278
O         -1.66961       -1.29734       -0.27080
C         -0.28261       -1.57252       -0.15399
C          0.40800       -0.23521        0.20158
O          0.29549        0.03750        1.59929
C          1.80210       -0.17820       -0.23324
C          2.95769       -0.14799       -0.56432
H          0.60732        2.59883       -0.28490
H         -1.11321        2.85123       -0.60986
H         -0.58059        2.31564        0.99688
H         -0.30672        0.68514       -1.58990
H         -2.28095        0.42038        0.72694
H         -2.63293        0.36090       -1.01795
H         -0.11563       -2.31657        0.63436
H          0.11044       -1.97321       -1.09875
H          0.90882       -0.54211        2.06300
H          3.97695       -0.11349       -0.86155
