19
dsC7O2H10nsd_5673.xyz
C          3.76546        0.93382        0.19988
C          2.53543        0.18862       -0.02115
C          1.51639       -0.42568       -0.20985
C          0.28900       -1.16917       -0.42869
C         -0.61152       -1.44670        0.80811
C         -1.65113       -0.56980        0.08653
C         -1.97753        0.78294        0.69805
O         -2.55396        1.63363       -0.27143
O         -0.76921       -0.38484       -1.05533
H          3.74461        1.88952       -0.33525
H          3.91514        1.15228        1.26285
H          4.63880        0.37492       -0.15337
H          0.49328       -2.06229       -1.03201
H         -0.88663       -2.49316        0.93999
H         -0.23207       -1.04386        1.74810
H         -2.57261       -1.07679       -0.22341
H         -2.70587        0.67038        1.50961
H         -1.05799        1.21759        1.12348
H         -1.94792        1.61703       -1.02317
