19
dsC7O2H10nsd_2296.xyz
C          2.03335       -0.34539       -1.06242
C          0.88053       -0.38389       -0.09574
C         -0.09740       -1.59180       -0.10238
C         -1.26667       -0.59000       -0.02899
O         -2.45885       -0.70185       -0.04506
C         -0.33236        0.62962       -0.04225
C         -0.63849        1.77903       -0.97348
C          0.20595        0.92607        1.38035
O          1.26322       -0.04535        1.25909
H          2.52386        0.63211       -1.04657
H          2.77790       -1.10116       -0.78901
H          1.69781       -0.55330       -2.08340
H         -0.11471       -2.15385       -1.04293
H          0.00696       -2.29008        0.73142
H         -1.54992        2.29400       -0.65122
H          0.17785        2.50863       -0.98559
H         -0.80411        1.43376       -1.99895
H          0.60564        1.94360        1.48096
H         -0.46571        0.72208        2.22252
