19
dsC7O2H10nsd_1676.xyz
C         -1.85920       -1.37926       -0.35386
C         -0.76701       -0.35629       -0.03913
C         -0.04206       -0.54181        1.32879
C          1.29457       -0.82188        0.59677
C          2.07938        0.43727        0.17345
O          1.35375        0.52932       -1.08156
C          0.59283       -0.64885       -0.77591
C         -1.25914        1.04515       -0.32375
O         -1.25909        1.95281        0.46746
H         -2.25821       -1.23582       -1.36477
H         -1.46206       -2.39807       -0.29449
H         -2.68925       -1.30176        0.35609
H         -0.05804        0.34258        1.96924
H         -0.41721       -1.39809        1.89411
H          1.87018       -1.70021        0.88383
H          1.93848        1.32721        0.79756
H          3.14950        0.28179       -0.00642
H          0.57352       -1.36882       -1.59944
H         -1.64038        1.18819       -1.36105
