19
dsC7O2H10nsd_0410.xyz
C          2.23992        0.11734        0.68093
C          2.10203       -0.78995       -0.53243
C          0.91399       -0.05234       -0.01885
O          0.43618        1.01150       -0.81307
C         -0.62365        1.61771       -0.07435
C         -1.34456        0.46530        0.62126
O         -2.19321       -0.28899       -0.26565
C         -1.28078       -1.40772       -0.27172
C         -0.28778       -0.67388        0.65689
H          2.38488       -0.33851        1.65501
H          2.75291        1.06097        0.53328
H          2.52722       -0.44027       -1.46630
H          2.14729       -1.86398       -0.38670
H         -0.22789        2.32150        0.67536
H         -1.26573        2.15528       -0.77581
H         -1.86406        0.75880        1.53901
H         -1.74162       -2.30694        0.15494
H         -0.90699       -1.63088       -1.27770
H         -0.06485       -1.15489        1.60829
