19
dsC7O2H10nsd_0343.xyz
C         -1.67442       -0.43802        0.67292
O         -1.24427       -1.52399       -0.15568
C          0.03023       -1.34581       -0.74989
C          1.06658       -0.96059        0.28090
O          2.26673       -0.33787       -0.16845
C          1.34605        0.44895        0.60414
C          0.72927        1.64402       -0.11240
C         -0.76213        1.73230       -0.33180
C         -1.75772        0.89455       -0.03286
H         -2.66996       -0.73671        1.01020
H         -1.03800       -0.36594        1.56396
H          0.27943       -2.31062       -1.20292
H          0.00648       -0.59338       -1.54912
H          1.20944       -1.69723        1.07442
H          1.70026        0.65084        1.61545
H          1.04701        2.55737        0.40884
H          1.21007        1.70674       -1.09779
H         -1.03731        2.64567       -0.85947
H         -2.75425        1.18570       -0.35660
