19
dsC7O2H10nsd_5619.xyz
O          2.90519       -0.81689       -0.15711
C          2.13453        0.27928        0.30641
C          0.82532        0.45858       -0.47687
C         -0.00930        1.63669        0.00044
C         -1.27106        1.29161        0.26428
C         -1.50182       -0.17078        0.04864
O         -2.72937       -0.62033       -0.43231
C         -0.74400       -1.08016        0.96935
C         -0.14483       -0.71950       -0.37952
H          3.16066       -0.63394       -1.06705
H          1.91668        0.06583        1.35756
H          2.71326        1.21690        0.27657
H          1.11003        0.61691       -1.53093
H          0.41454        2.62514        0.14259
H         -2.05566        1.95025        0.62020
H         -2.86466       -0.23241       -1.30435
H         -0.33086       -0.67153        1.88545
H         -1.11880       -2.09531        1.04651
H         -0.08478       -1.51848       -1.10757
