19
dsC7O2H10nsd_2434.xyz
O         -1.76138       -1.33270       -0.32419
C         -0.79962       -0.35797       -0.01962
C         -1.29146        1.10144       -0.02696
O         -0.07387        1.85463        0.03824
C          0.96067        0.95314       -0.32136
C          1.40003       -0.12581        0.74063
C          1.54097       -1.09968       -0.46197
C          0.36869       -0.28039       -1.04120
C          0.02468       -0.54326        1.29632
H         -2.38056       -1.38816        0.41137
H         -1.84851        1.33405       -0.94651
H         -1.91724        1.34988        0.83872
H          1.77668        1.49034       -0.80454
H          2.21041        0.04229        1.44997
H          2.46308       -0.95346       -1.03004
H          1.38393       -2.16393       -0.27113
H          0.08769       -0.28110       -2.09376
H          0.01697       -1.58536        1.62995
H         -0.33423        0.09521        2.10856
