19
dsC7O2H10nsd_1650.xyz
C          1.03125       -1.07382        1.23829
C          1.12401       -0.07082        0.11335
C          2.27229        0.84296        0.00841
O          2.17895       -0.30702       -0.83100
C         -0.19149        0.37531       -0.51775
O         -1.00267       -0.75716       -0.84298
C         -2.30430       -0.62213       -0.27754
C         -2.25351        0.64851        0.52245
C         -1.06152        1.21570        0.38375
H          0.42446       -0.68124        2.06060
H          0.56045       -1.99187        0.87767
H          2.02675       -1.31471        1.61776
H          2.16628        1.80197       -0.49961
H          3.05009        0.81098        0.77054
H          0.07091        0.91125       -1.44460
H         -3.06030       -0.57828       -1.07798
H         -2.53521       -1.50455        0.33809
H         -3.09057        1.02093        1.09924
H         -0.72347        2.14474        0.82442
