19
dsC7O2H10nsd_2730.xyz
C         -2.54261       -0.13311       -0.74404
C         -1.21081       -0.13666       -0.05078
C         -0.97478       -0.78299        1.28585
C         -0.16504       -1.26045        0.10494
C          0.94334       -0.25993       -0.11690
C          2.31773       -0.21399        0.37535
O          2.02161       -0.45332       -1.01443
C         -0.09050        0.87055       -0.33371
O         -0.08942        2.00398        0.50475
H         -2.42971       -0.04124       -1.83018
H         -3.09498       -1.05636       -0.54107
H         -3.16068        0.70434       -0.40012
H         -0.49455       -0.23414        2.09068
H         -1.76226       -1.45614        1.61083
H         -0.18754       -2.27628       -0.26903
H          2.78733        0.74522        0.59162
H          2.72884       -1.06435        0.91766
H         -0.08064        1.15106       -1.39701
H          0.57271        2.62215        0.17990
