19
dsC7O2H10nsd_4491.xyz
O          1.95360       -1.44069       -0.26935
C          1.39992       -0.30466        0.38031
C          1.43751        0.90247       -0.56562
C          0.38821        1.86150        0.02137
C         -0.74297        0.95799        0.54536
C         -1.60007        0.30985       -0.55198
O         -2.33272       -0.76459        0.04326
C         -0.97554       -1.00670       -0.34459
C         -0.07926       -0.46368        0.77804
H          1.98698       -2.16317        0.36558
H          1.98062       -0.06563        1.28577
H          2.43468        1.34321       -0.63794
H          1.15342        0.56806       -1.56893
H          0.81885        2.42182        0.85907
H          0.03341        2.60060       -0.70447
H         -1.31591        1.40093        1.36278
H         -2.01914        0.76431       -1.44368
H         -0.78498       -1.81946       -1.03398
H         -0.22174       -0.94896        1.74722
