19
dsC7O2H10nsd_5633.xyz
O         -2.46159       -0.58967       -0.06381
C         -1.26588       -1.30942       -0.28815
C         -0.08112       -0.75086        0.52682
C          1.20837       -1.49826        0.28994
C          2.18921       -0.71965       -0.16466
C          1.76935        0.72169       -0.29719
C          0.29778        0.69340        0.13408
C         -0.40313        1.87010        0.65474
O         -0.63058        1.42920       -0.69416
H         -2.30833        0.27714       -0.46281
H         -1.45437       -2.34462        0.01725
H         -0.99606       -1.32542       -1.35493
H         -0.37661       -0.78929        1.58407
H          1.29068       -2.56535        0.46653
H          3.19093       -1.05509       -0.40839
H          2.36979        1.38640        0.33740
H          1.85874        1.10264       -1.32191
H         -1.24604        1.73463        1.33073
H          0.12118        2.82069        0.74229
