19
dsC7O2H10nsd_2098.xyz
C          2.44516       -0.37675       -0.00916
C          0.94506       -0.46217        0.01037
C          0.04489       -1.72943        0.04047
C         -0.94248       -0.55701        0.02249
O         -2.31720       -0.67955        0.03737
C         -0.02631        0.23161        1.03265
C         -0.10704        1.69776        0.63445
O         -0.12509        1.58893       -0.80357
C         -0.04596        0.18516       -1.00445
H          2.85917       -0.91060       -0.87137
H          2.77495        0.66568       -0.07468
H          2.88221       -0.81319        0.89549
H          0.06590       -2.37112       -0.84586
H          0.07873       -2.32209        0.95803
H         -2.69636        0.15747       -0.25405
H         -0.00406       -0.04657        2.08652
H         -1.02005        2.19606        0.98715
H          0.75690        2.29399        0.95392
H         -0.03893       -0.05970       -2.06651
