19
dsC7O2H10nsd_5273.xyz
O          2.82956       -0.58284       -0.13765
C          1.75013       -0.34404        0.75545
C          0.48056        0.04715        0.03440
C          0.46431        1.40365       -0.72380
C         -0.84963        1.81231        0.00378
C         -0.84874        0.46273        0.79204
C         -1.57421       -0.65362        0.04045
O         -2.69944       -1.06108        0.04797
C         -0.29496       -1.08787       -0.70554
H          2.58918       -1.32904       -0.69684
H          1.56343       -1.21599        1.40465
H          2.08306        0.47519        1.40267
H          1.31710        2.03913       -0.47409
H          0.40739        1.33075       -1.81274
H         -0.73431        2.67594        0.66122
H         -1.72712        1.98091       -0.62487
H         -0.97300        0.50618        1.87545
H          0.00480       -2.09851       -0.40045
H         -0.33622       -1.05508       -1.79824
