19
dsC7O2H10nsd_2720.xyz
C          2.22570        0.65715       -0.83861
C          0.82428        0.08707       -0.91506
C          0.36700       -0.85758        0.14871
O          1.19572       -1.35959        1.13240
C         -0.99004       -1.46630       -0.23611
C         -1.53693       -0.01243       -0.23854
O         -2.64369        0.44180       -0.32884
C         -0.20973        0.58345        0.12695
C         -0.01830        1.80035        0.98621
H          2.60999        0.64990        0.18377
H          2.90668        0.05786       -1.45275
H          2.26162        1.68429       -1.21483
H          0.47252       -0.07853       -1.93285
H          1.78850       -2.00788        0.73491
H         -1.05200       -2.04660       -1.16242
H         -1.44656       -2.02971        0.58350
H         -0.27000        2.71013        0.43047
H         -0.67082        1.75920        1.86356
H          1.01192        1.89343        1.33681
