19
dsC7O2H10nsd_5972.xyz
O         -3.42285        0.00766       -0.07982
C         -2.09568        0.08069        0.41384
C         -1.06022       -0.38655       -0.62040
C          0.34228       -0.33405       -0.08061
C          0.95338       -1.44010        0.77929
C          1.66612       -1.06354       -0.46892
C          2.49630        0.20307       -0.21203
C          1.15273        0.91496        0.09963
O          0.84475        2.07064        0.20673
H         -3.52322        0.68690       -0.75415
H         -1.84046        1.09454        0.75299
H         -2.06490       -0.57588        1.29004
H         -1.31062       -1.40501       -0.93885
H         -1.13337        0.25546       -1.50879
H          1.39016       -1.21582        1.74914
H          0.38213       -2.36330        0.75432
H          1.79826       -1.73907       -1.30369
H          3.24546        0.14741        0.58335
H          2.95183        0.64150       -1.10447
