19
dsC7O2H10nsd_2620.xyz
C         -0.48367        2.07691        0.32186
C         -0.28496        0.77960       -0.48092
C         -1.37377       -0.24098       -0.09627
O         -2.53551       -0.15126       -0.39667
C         -0.76036       -1.36728        0.75322
C          0.73640       -1.21634        0.59050
C          1.27211       -1.24561       -0.83060
C          1.02975        0.07294       -0.16822
O          2.16878        0.83710        0.08531
H          0.27652        2.81468        0.05096
H         -1.46956        2.49797        0.11137
H         -0.42086        1.89817        1.40235
H         -0.38884        1.01117       -1.54690
H         -1.07587       -1.21666        1.79390
H         -1.16663       -2.33375        0.43691
H          1.40128       -1.53924        1.38296
H          2.31241       -1.52513       -0.94924
H          0.61904       -1.56884       -1.63715
H          2.03341        1.31943        0.90824
