19
dsC7O2H10nsd_2677.xyz
O          0.16506        2.22731       -0.22930
C          0.39334        0.98452        0.40294
C         -0.88757        0.28703        0.96954
C         -0.37554       -1.16447        1.10646
C         -0.01582       -1.28452       -0.39707
C         -1.30673       -0.78846       -1.03211
C         -1.83132        0.13682       -0.22076
C          1.01082       -0.12362       -0.52380
O          2.26768       -0.60104       -0.06745
H         -0.48410        2.07539       -0.92625
H          1.09869        1.19205        1.21341
H         -1.29861        0.77136        1.85529
H          0.49811       -1.26423        1.75629
H         -1.15665       -1.86272        1.41608
H          0.37127       -2.23849       -0.75402
H         -1.66819       -1.09240       -2.00676
H         -2.71748        0.73584       -0.39038
H          1.08855        0.25007       -1.55397
H          2.88343        0.13914       -0.06689
