19
dsC7O2H10nsd_3090.xyz
O          0.04419        2.03961       -0.14564
C         -0.89812        1.00928       -0.12284
C         -0.84876       -0.25909       -1.05400
C         -1.79842       -0.88639        0.02153
C         -0.92637       -0.04877        1.01602
C          0.41475       -0.78196        0.85003
O          1.62072        0.04490        0.78141
C          1.79795       -0.26754       -0.63331
C          0.44797       -1.00314       -0.68652
H          0.81379        1.71746        0.34617
H         -1.88196        1.47586       -0.22932
H         -1.12495       -0.20126       -2.10650
H         -2.82807       -0.53020       -0.03763
H         -1.78161       -1.97388        0.12715
H         -1.25723        0.19654        2.02493
H          0.55875       -1.62593        1.53017
H          1.90893        0.63463       -1.24057
H          2.66672       -0.92024       -0.77468
H          0.47238       -2.02338       -1.07142
