19
dsC7O2H10nsd_5187.xyz
C         -2.62982        0.02180        0.20420
C         -1.59568       -0.83132       -0.54468
C         -0.18573       -0.42331       -0.23906
O          0.17653       -0.51347        1.18827
C          1.52336       -0.71710        0.74396
C          1.79882        0.26796       -0.39440
C          1.17033       -1.10660       -0.64551
C          0.44897        0.95430       -0.61334
O          0.08677        2.06339        0.15631
H         -3.64596       -0.28416       -0.06002
H         -2.50988       -0.09374        1.28507
H         -2.51282        1.08233       -0.03392
H         -1.72287       -1.88948       -0.28719
H         -1.74446       -0.74888       -1.62874
H          2.25867       -1.08631        1.44583
H          2.79141        0.61202       -0.65405
H          1.43779       -1.92808       -1.29366
H          0.28660        1.19922       -1.66603
H          0.07371        1.74329        1.06904
