19
dsC7O2H10nsd_1277.xyz
C         -2.35731        0.85871        0.40562
C         -1.41390        0.01439       -0.44943
O         -1.65913       -1.36203       -0.17436
C          0.03744        0.34045       -0.20920
C          0.83531        1.66484       -0.24965
C          1.91584        0.62292        0.12285
C          0.91237       -0.21561        0.96681
O          1.20745       -1.48601        0.29096
C          1.25835       -0.46956       -0.76606
H         -2.12606        0.73652        1.46860
H         -2.28335        1.91987        0.14650
H         -3.38786        0.53237        0.24266
H         -1.63677        0.21458       -1.51213
H         -0.80645       -1.80578       -0.06376
H          0.93736        2.14326       -1.22767
H          0.58935        2.40754        0.51390
H          2.97979        0.75348        0.31589
H          0.73029       -0.22830        2.04060
H          1.48856       -0.78599       -1.78317
