19
dsC7O2H10nsd_2197.xyz
O         -2.26818       -0.62788        0.09989
C         -0.98877       -0.08383       -0.05835
C         -0.79547        1.42266       -0.34907
C          0.58290        1.27413        0.33840
O          1.54563        0.69096       -0.54880
C          1.26085       -0.71900       -0.53812
C          1.09891       -1.02641        0.96137
C          0.03886        0.05120        1.14798
C         -0.17173       -0.91869       -1.07002
H         -2.77887       -0.03698        0.66318
H         -0.81729        1.76746       -1.38615
H         -1.46548        2.03841        0.26381
H          1.03194        2.13653        0.83185
H          2.05238       -1.23148       -1.08459
H          0.73413       -2.03814        1.15806
H          2.01724       -0.84811        1.52711
H         -0.37678        0.24944        2.13479
H         -0.29771       -0.57294       -2.09884
H         -0.47245       -1.96921       -1.01110
