19
dsC7O2H10nsd_3476.xyz
C          2.32424       -0.11060        0.82403
C          1.31998        0.20307       -0.30247
C          0.79528       -1.07617       -0.91510
C         -0.34962       -1.65058       -0.54340
C         -1.19904       -1.04070        0.50951
O         -2.07575        0.04667        0.11575
C         -0.92471        0.34368        0.91858
C          0.17248        1.12628        0.17294
O         -0.38987        1.83086       -0.91666
H          3.12997       -0.75730        0.46331
H          2.77636        0.80868        1.21109
H          1.83464       -0.62975        1.65498
H          1.84354        0.76894       -1.08121
H          1.41650       -1.55253       -1.67014
H         -0.68639       -2.58091       -0.99101
H         -1.66960       -1.72001        1.21892
H         -1.16378        0.66142        1.93143
H          0.59435        1.87525        0.85418
H         -1.18228        1.33605       -1.16884
