19
dsC7O2H10nsd_1036.xyz
C          4.09333       -0.00001       -0.19313
C          2.65416       -0.00011        0.01813
C          1.46304       -0.00002        0.17916
C          0.02528       -0.00002        0.42071
O         -0.53521       -1.17055       -0.13525
C         -1.93389       -1.24117        0.11821
C         -2.64065        0.00001       -0.43047
C         -1.93387        1.24118        0.11820
O         -0.53518        1.17055       -0.13522
H          4.63546       -0.06784        0.75624
H          4.39970       -0.84833       -0.81456
H          4.41642        0.91684       -0.69782
H         -0.17933       -0.00003        1.51143
H         -2.28567       -2.15968       -0.35781
H         -2.11257       -1.32894        1.20400
H         -2.57842        0.00000       -1.52347
H         -3.69865        0.00003       -0.14523
H         -2.28562        2.15969       -0.35786
H         -2.11258        1.32899        1.20398
