19
dsC7O2H10nsd_2971.xyz
C          2.41922       -0.48144       -0.85266
C          1.38276       -0.79763        0.20178
C          0.80679        0.20629        1.12298
O          0.68593        1.48801        0.53354
C         -0.26088        0.98608       -0.47159
C         -1.61647        1.63924       -0.30560
C         -0.11046       -0.44206        0.06014
C         -1.15216       -1.45775        0.21311
O         -2.26056       -1.40122       -0.27002
H          2.27276       -1.08709       -1.75220
H          2.38582        0.57408       -1.12960
H          3.42148       -0.69021       -0.46482
H          1.48851       -1.77475        0.67280
H          0.78402        0.14025        2.20580
H          0.13015        1.15116       -1.48256
H         -1.99658        1.49670        0.70931
H         -1.53006        2.71250       -0.49953
H         -2.33299        1.20099       -1.00417
H         -0.83892       -2.33432        0.82788
