19
dsC7O2H10nsd_5402.xyz
C          2.66014       -0.34986       -0.15669
O          1.41761       -0.72375        0.40787
C          0.30817       -0.44449       -0.38305
C         -0.97397       -1.26411       -0.08620
O         -1.17355       -2.39936        0.22422
C         -1.85776       -0.00313       -0.19812
C         -0.55860        0.81494       -0.12027
C         -0.29596        2.23062       -0.52876
C         -0.23743        1.83287        0.93085
H          2.75112        0.73863       -0.28103
H          3.43757       -0.68992        0.53112
H          2.81614       -0.82740       -1.13511
H          0.54703       -0.53482       -1.45733
H         -2.37783        0.05632       -1.16095
H         -2.58783        0.12456        0.60532
H          0.63572        2.45548       -1.03886
H         -1.13730        2.83132       -0.85996
H          0.73351        1.76461        1.40984
H         -1.03817        2.16514        1.58366
