19
dsC7O2H10nsd_5906.xyz
C         -0.73722        0.06538        1.80569
C         -0.61379        0.01497        0.25901
C          0.73643       -0.56422       -0.21313
C          1.95625        0.26259        0.17497
O          3.08834       -0.39138       -0.37937
C         -1.76815       -0.88395       -0.23405
O         -1.62756       -1.93168       -0.80063
C         -0.87248        1.34346       -0.30167
C         -1.13189        2.41832       -0.77511
H         -0.05119        0.80496        2.22344
H         -1.75107        0.34719        2.10518
H         -0.50442       -0.91457        2.23322
H          0.83966       -1.57589        0.19070
H          0.71928       -0.66620       -1.30186
H          1.85210        1.28610       -0.21540
H          2.04290        0.33474        1.27051
H          3.86878        0.12836       -0.16672
H         -2.77442       -0.47129       -0.00002
H         -1.34276        3.37175       -1.19339
