19
dsC7O2H10nsd_0371.xyz
C         -2.05966       -0.76005        0.03224
C         -2.05966        0.76004        0.03225
C         -0.77589        0.00000        0.03177
C          0.30574        0.00000        1.10865
C          1.10259       -1.23775        0.64929
O          1.03567       -1.16152       -0.79353
C          0.26751       -0.00000       -1.06757
O          1.03567        1.16151       -0.79353
C          1.10259        1.23776        0.64928
H         -2.35941       -1.26847        0.94332
H         -2.35647       -1.27091       -0.87816
H         -2.35649        1.27093       -0.87813
H         -2.35940        1.26845        0.94334
H         -0.00560        0.00001        2.15301
H          2.15093       -1.21460        0.96884
H          0.64733       -2.17647        0.98764
H         -0.02912       -0.00001       -2.11525
H          2.15093        1.21461        0.96883
H          0.64732        2.17648        0.98762
