19
dsC7O2H10nsd_5328.xyz
O          3.06327       -0.10693       -0.53370
C          2.18245       -0.69254        0.41898
C          0.76089       -0.20860        0.26266
C         -0.25419       -1.06782        0.07265
C         -1.66692       -0.64508       -0.03427
O         -2.55844       -1.44803       -0.22867
C         -1.93854        0.84371        0.15147
C         -0.77098        1.70863       -0.33772
C          0.54365        1.28293        0.32607
H          2.78695       -0.40853       -1.40582
H          2.21528       -1.79025        0.38090
H          2.57249       -0.38399        1.39709
H         -0.08346       -2.13956        0.00787
H         -2.88007        1.08553       -0.34797
H         -2.09681        1.00913        1.22757
H         -0.67281        1.60029       -1.42514
H         -0.96974        2.76727       -0.14317
H          1.40132        1.78245       -0.13534
H          0.55007        1.58994        1.38390
