19
dsC7O2H10nsd_4108.xyz
C         -2.84776       -0.74080       -0.31937
C         -1.42639       -0.21577       -0.45159
C         -1.19910        1.31903       -0.28951
C         -0.02866        1.03214        0.67145
O          1.24488        1.05157        0.01597
C          1.77384       -0.19727       -0.14102
O          2.82802       -0.37800       -0.67487
C          0.82996       -1.23931        0.46492
C         -0.44719       -0.46564        0.74466
H         -3.31031       -0.39580        0.61266
H         -3.47475       -0.39603       -1.14872
H         -2.87019       -1.83619       -0.31774
H         -0.98508       -0.58007       -1.38582
H         -0.94628        1.89360       -1.18266
H         -2.03085        1.80857        0.22628
H          0.05041        1.62689        1.58402
H          0.71551       -2.07465       -0.23024
H          1.29957       -1.63305        1.37295
H         -0.95946       -0.75618        1.66316
