19
dsC7O2H10nsd_2260.xyz
O         -2.66796       -0.22362       -0.03154
C         -1.30312       -0.00234       -0.07397
C         -0.62233        1.14876       -0.81046
C          0.43554        1.23504        0.34870
C          1.87451        0.82414       -0.01314
C          1.99622       -0.70845       -0.05648
O          0.81326       -1.31535       -0.57258
C         -0.29957       -1.07405        0.24658
C         -0.35568        0.15514        1.11751
H         -2.89900       -0.82764       -0.74624
H         -0.24216        0.93615       -1.81454
H         -1.25897        2.03574       -0.83737
H          0.41617        2.21213        0.83305
H          2.14305        1.26010       -0.98213
H          2.58943        1.21581        0.71975
H          2.81294       -1.03275       -0.70637
H          2.19457       -1.09615        0.95367
H         -0.72830       -1.97746        0.67737
H         -0.54353        0.11640        2.18341
