19
dsC7O2H10nsd_2589.xyz
C          2.60050       -0.78034       -0.41164
C          1.37428       -0.06072        0.07253
C          1.18477        1.25151       -0.06282
C         -0.08660        1.91603        0.40006
C         -1.31192        1.44665       -0.38289
O         -1.75786        0.09012       -0.20945
C         -1.02790       -1.02082        0.05218
O         -1.51414       -2.09012       -0.20175
C          0.31685       -0.90178        0.76583
H          3.11522       -1.28408        0.41659
H          2.33741       -1.56272       -1.13455
H          3.30705       -0.09600       -0.88828
H          1.94040        1.86540       -0.54525
H         -0.25351        1.75598        1.47463
H         -0.02596        3.00026        0.25855
H         -2.18513        2.04449       -0.10407
H         -1.13237        1.59163       -1.45538
H          0.11444       -0.49003        1.76453
H          0.65844       -1.92803        0.90329
