19
dsC7O2H10nsd_2767.xyz
O          2.06995       -1.25981       -0.09303
C          0.66375       -1.07461       -0.01059
C          0.06653       -0.00016        0.96114
C          0.66298        1.10393        0.00754
O          2.01447        1.42614        0.00992
C          0.06903        0.00504       -0.95400
C         -1.13531       -0.00659        0.00385
C         -2.40845       -0.77978       -0.00186
C         -2.41697        0.74843        0.00187
H          2.34542       -1.80444        0.65166
H          0.14991       -2.04269       -0.01554
H          0.04759       -0.01834        2.05233
H          0.10620        2.04379        0.01060
H          2.49941        0.58958       -0.03340
H          0.05441       -0.00767       -2.04444
H         -2.71268       -1.28231       -0.91479
H         -2.71860       -1.28644        0.90689
H         -2.72553        1.25196       -0.90894
H         -2.73087        1.24841        0.91280
