19
dsC7O2H10nsd_4508.xyz
O         -2.30069       -0.28303        0.36577
C         -1.21835       -0.37667       -0.54784
C         -0.69505        1.01648       -0.97820
C          0.23417        1.67026        0.07566
C          1.15524        0.60889        0.71303
O          0.30266       -0.40663        1.27064
C         -0.07746       -1.18158        0.12028
C          1.19557       -1.20837       -0.70517
C          1.93051       -0.15979       -0.34719
H         -1.90136       -0.06422        1.21782
H         -1.60721       -0.90790       -1.42380
H         -0.15539        0.90993       -1.92403
H         -1.55877        1.65832       -1.17334
H          0.81928        2.47696       -0.38057
H         -0.35696        2.12071        0.88053
H          1.76588        1.02444        1.51936
H         -0.44103       -2.15379        0.46397
H          1.40221       -1.93176       -1.48270
H          2.86981        0.16929       -0.77194
