19
dsC7O2H10nsd_0582.xyz
C         -2.23612        0.66174        0.11466
O         -2.13541       -0.77784       -0.06603
C         -0.72979       -0.62369       -0.36451
C          0.29169       -1.63027        0.12510
O          1.57094       -1.17671       -0.30010
C          2.08038        0.00037        0.33071
C          1.57408        1.34793       -0.17857
C          0.29139        1.71836       -0.14787
C         -0.71461        0.73268        0.34962
H         -2.57141        1.15563       -0.80878
H         -2.90248        0.92829        0.93964
H         -0.58548       -0.49669       -1.44810
H          0.24571       -1.73431        1.22101
H          0.15381       -2.61951       -0.32211
H          1.90417       -0.06596        1.41850
H          3.16151       -0.05333        0.17718
H          2.33072        2.03713       -0.54368
H         -0.01895        2.69903       -0.49784
H         -0.54385        0.54336        1.41840
