19
dsC7O2H10nsd_2554.xyz
C         -2.84780       -0.14966        0.27315
C         -1.37127       -0.11246        0.00363
C         -0.62628       -1.20622       -0.17692
C          0.84973       -1.06929       -0.46768
C          1.64922       -0.72936        0.80530
O          1.40313        0.67080        0.95174
C          0.79927        1.11827       -0.26467
C         -0.71820        1.25276       -0.07765
O          1.08186        0.12840       -1.22495
H         -3.08731        0.32901        1.23129
H         -3.40269        0.40212       -0.49674
H         -3.22798       -1.17449        0.29841
H         -1.05261       -2.20277       -0.10547
H          1.25365       -1.91131       -1.03188
H          1.29581       -1.25679        1.69591
H          2.72226       -0.91667        0.66699
H          1.27063        2.05480       -0.57762
H         -0.90917        1.82488        0.83881
H         -1.15052        1.83330       -0.90505
