19
dsC7O2H10nsd_0979.xyz
O         -2.52987        0.90227        0.88391
C         -2.65335        0.29403       -0.14453
O         -1.85373       -0.67306       -0.61203
C         -0.71317       -1.05468        0.19693
C          0.58125       -0.54346       -0.41742
C          1.83531       -1.07096        0.33811
C          2.79060        0.09678        0.28418
C          2.19662        1.21311       -0.13177
C          0.73263        1.00503       -0.43476
H         -3.46832        0.44823       -0.86900
H         -0.85427       -0.67019        1.20973
H         -0.73102       -2.14824        0.21826
H          0.62920       -0.90346       -1.45098
H          1.60085       -1.33125        1.38195
H          2.23897       -1.98194       -0.11827
H          3.82691        0.01321        0.59234
H          2.67544        2.18253       -0.21609
H          0.10130        1.48116        0.32779
H          0.43034        1.43728       -1.39525
