19
dsC7O2H10nsd_2828.xyz
C         -2.55418       -1.02191       -0.01462
C         -1.14332       -0.70296        0.43864
C         -0.09283       -0.58251       -0.66092
C          1.35217       -0.28230       -0.15396
O          2.46690       -0.48331       -0.94442
C          1.49368       -0.21078        1.32657
C          0.84730        0.95088        0.58588
C         -0.58901        0.64691        0.05278
O         -1.36118        1.65899       -0.49447
H         -2.78806       -0.52585       -0.96012
H         -2.68684       -2.10051       -0.14771
H         -3.28836       -0.68534        0.72615
H         -0.87876       -1.15492        1.39001
H         -0.29879       -0.91629       -1.67104
H          2.33716       -0.00648       -1.77244
H          0.96234       -0.85216        2.02179
H          2.51274        0.00962        1.63252
H          1.24681        1.95641        0.62440
H         -1.84681        2.08610        0.22134
