19
dsC7O2H10nsd_4427.xyz
C         -1.65522        1.64873        0.22297
C         -1.19446        0.42765       -0.54755
O         -2.05155       -0.72497       -0.33258
C         -0.97429       -1.49657        0.23238
C          0.02209       -0.35051        0.00473
O          0.70036        0.16199        1.17892
C          1.97207       -0.10570        0.57463
C          2.15573        0.72031       -0.65571
C          1.34322       -0.56172       -0.71804
H         -2.67148        1.91506       -0.08338
H         -1.64826        1.45790        1.29870
H         -0.99882        2.50146        0.02162
H         -1.11293        0.64956       -1.62085
H         -1.13453       -1.73802        1.29002
H         -0.78110       -2.41879       -0.33055
H          2.75592       -0.51324        1.20098
H          1.67412        1.69138       -0.72722
H          3.13200        0.65359       -1.12634
H          1.57975       -1.38827       -1.37411
