19
dsC7O2H10nsd_0295.xyz
C         -0.68166        1.56869       -0.55339
C         -1.40259        0.51004        0.34459
O         -1.80081       -0.70000       -0.26234
C         -0.63657       -1.47307       -0.52733
C          0.42197       -1.11102        0.54874
C          1.78027       -0.74289       -0.05837
O          1.60329        0.55800       -0.61226
C          0.65859        1.27262        0.17882
C         -0.06620        0.24607        1.09126
H         -0.66595        1.34520       -1.62179
H         -1.05473        2.58505       -0.40389
H         -2.25276        0.88808        0.91504
H         -0.92849       -2.52654       -0.50653
H         -0.24180       -1.24441       -1.52837
H          0.49606       -1.87926        1.32060
H          2.56672       -0.74141        0.71267
H          2.09704       -1.40840       -0.86842
H          1.14068        2.12992        0.65903
H         -0.01948        0.36518        2.17255
