19
dsC7O2H10nsd_5705.xyz
O          2.61780        0.96925        0.79833
C          2.26619        0.11631       -0.28278
C          1.09868       -0.78265        0.06426
O          0.31517       -1.27285       -1.02887
C         -0.29547       -0.36026       -0.09903
C         -0.71939        1.01441       -0.63454
C         -2.16949        1.10314       -0.22972
C         -2.55851        0.06731        0.51232
C         -1.44408       -0.91953        0.75208
H          2.95827        0.42163        1.51288
H          1.98847        0.76825       -1.11445
H          3.12158       -0.49225       -0.61377
H          1.31287       -1.53390        0.83136
H         -0.12030        1.82172       -0.19304
H         -0.57447        1.06460       -1.71995
H         -2.79970        1.93653       -0.51878
H         -3.55361       -0.07187        0.91930
H         -1.17468       -0.97984        1.81535
H         -1.68981       -1.93840        0.42994
