19
dsC7O2H10nsd_0400.xyz
C          2.46550       -0.30560       -0.68645
O          2.36132       -0.50860        0.72766
C          1.20440       -0.06495        0.02796
C          0.67036        1.33514        0.31484
C         -0.69651        1.33597       -0.39079
C         -1.21115       -0.08013       -0.15229
C         -2.56701       -0.51987       -0.48497
O         -2.20725       -0.23212        0.86975
C          0.00064       -1.01023       -0.07027
H          3.08725        0.53556       -0.99248
H          2.58835       -1.21201       -1.27917
H          0.53412        1.44411        1.39742
H          1.34589        2.12590       -0.01898
H         -1.39607        2.08220       -0.00879
H         -0.56653        1.50698       -1.46690
H         -3.26738        0.17908       -0.94275
H         -2.75714       -1.57013       -0.70585
H         -0.07071       -1.63273        0.82599
H          0.07229       -1.67517       -0.93603
