19
dsC7O2H10nsd_5275.xyz
C         -2.65336       -0.44885        0.34318
C         -1.76460        0.58245       -0.36261
C         -0.28468        0.30150       -0.25699
O          0.54374        1.36024       -0.77613
C          1.36081        1.37775        0.42265
C          0.54723        0.22907        1.05541
C          0.97620       -1.20527        0.65873
O          1.64434       -1.12933       -0.59988
C          0.21678       -1.14194       -0.60730
H         -3.70742       -0.17147        0.25431
H         -2.53899       -1.44995       -0.08384
H         -2.41702       -0.51433        1.41059
H         -2.02064        0.63341       -1.42969
H         -1.94948        1.58234        0.04575
H          2.41089        1.16444        0.20571
H          1.26916        2.33671        0.94563
H          0.10292        0.35972        2.04068
H          1.21819       -2.04330        1.30222
H         -0.26244       -1.91315       -1.20163
