19
dsC7O2H10nsd_2970.xyz
C         -2.37626       -0.93238       -0.35457
C         -0.86981       -1.04642       -0.41983
C         -0.06271       -0.97516        0.82423
C          1.40846       -1.30828        0.54880
C          1.46937       -0.17082       -0.52495
O          2.42312        0.84022       -0.29852
C          0.00564        0.19551       -0.19825
C         -0.51112        1.56465       -0.07668
O         -1.53354        1.89091        0.48948
H         -2.78471       -0.59699       -1.31298
H         -2.81406       -1.91009       -0.12680
H         -2.68602       -0.21494        0.40642
H         -0.50489       -1.71001       -1.20519
H         -0.53841       -0.93242        1.79735
H          2.06770       -1.06728        1.38754
H          1.62272       -2.32974        0.21811
H          1.64266       -0.50283       -1.55339
H          2.35551        1.12352        0.62076
H          0.14147        2.32910       -0.55195
