19
dsC7O2H10nsd_5038.xyz
O         -2.68868       -0.38821        0.12859
C         -1.74615        0.64084       -0.14951
C         -0.36610        0.06260       -0.01333
C          0.26938       -0.36307        1.35866
C          1.63642       -0.21165        0.60896
C          1.52976       -1.33359       -0.44821
C          0.04274       -1.13026       -0.91103
C          0.90435        0.93292       -0.11265
O          1.14431        2.06037       -0.43243
H         -3.57167       -0.01944        0.03225
H         -1.87153        1.03510       -1.17076
H         -1.86293        1.48927        0.54254
H          0.11980        0.37640        2.14784
H          0.01988       -1.36616        1.71122
H          2.58285       -0.06549        1.12491
H          2.24735       -1.20744       -1.26300
H          1.69437       -2.31861       -0.00343
H         -0.03827       -0.88814       -1.97473
H         -0.58730       -1.99954       -0.71349
