19
dsC7O2H10nsd_4089.xyz
O         -2.77881       -0.76529       -0.27396
C         -1.64696       -0.23043        0.37881
C         -1.37353        1.28516        0.13198
C         -0.01981        0.94407       -0.53728
C          1.15840        0.78237        0.45164
C          2.46470        0.32486       -0.21590
O          2.07081       -1.06553       -0.16601
C          0.86111       -0.75106        0.54899
C         -0.34975       -0.59690       -0.38024
H         -3.56545       -0.43765        0.17492
H         -1.63387       -0.52368        1.44029
H         -2.09587        1.68265       -0.58601
H         -1.34090        1.94121        1.00765
H          0.20457        1.43358       -1.48667
H          1.22784        1.47197        1.29379
H          2.64008        0.67400       -1.24168
H          3.36947        0.50203        0.38022
H          0.75411       -1.33804        1.46747
H         -0.46099       -1.30783       -1.19824
