19
dsC7O2H10nsd_1721.xyz
O         -1.49343        1.35227       -0.79482
C         -1.60334        0.12806       -0.12520
C         -0.44105       -0.79076       -0.39026
O          0.72846       -0.10604        0.03768
C          1.92273       -0.77323       -0.32285
C          3.07641        0.00954        0.09939
C          4.04255        0.63815        0.43566
C         -2.28518        0.11163        1.22188
C         -2.98854       -0.42119       -0.01289
H         -0.62945        1.70820       -0.55166
H         -0.55637       -1.74462        0.14815
H         -0.37347       -1.01028       -1.46839
H          1.96054       -1.77234        0.14349
H          1.96022       -0.93296       -1.41395
H          4.89397        1.19702        0.73651
H         -1.94782       -0.59411        1.97330
H         -2.61586        1.06964        1.60528
H         -3.13767       -1.49152       -0.10836
H         -3.77579        0.18788       -0.44169
