19
dsC7O2H10nsd_3137.xyz
C          2.12701       -0.75930        0.84392
C          1.27346       -0.02669       -0.20124
C          0.73810        1.31374        0.25486
O         -0.00000        1.99871       -0.76310
C         -0.73811        1.31374        0.25486
C         -1.27346       -0.02669       -0.20124
C         -2.12701       -0.75930        0.84392
C          0.00000       -0.83382       -0.54101
O          0.00000       -1.96396       -0.95415
H          1.60222       -0.84356        1.80167
H          2.35479       -1.76854        0.49329
H          3.06779       -0.22961        1.02043
H          1.85304        0.09023       -1.12443
H          1.32494        1.94743        0.91581
H         -1.32495        1.94742        0.91581
H         -1.85304        0.09022       -1.12443
H         -3.06779       -0.22962        1.02043
H         -2.35478       -1.76855        0.49329
H         -1.60221       -0.84357        1.80167
