19
dsC7O2H10nsd_2689.xyz
C          1.45066        1.96909       -0.37268
C          0.96650        0.61195        0.06737
O          1.00096        0.45356        1.45642
C          1.26972       -0.63006       -0.73111
O          1.61698       -1.73866        0.05780
C         -0.15346       -0.09284       -0.69091
C         -1.24410       -0.83778        0.06724
C         -2.51514       -0.12174        0.05117
C         -3.55823        0.47406        0.01934
H          1.40747        2.06710       -1.46141
H          0.82637        2.75441        0.06535
H          2.48317        2.13237       -0.04759
H          1.38418       -0.41905        1.62272
H          1.83197       -0.54586       -1.66017
H          1.11791       -2.50663       -0.23873
H         -0.48860        0.38500       -1.60658
H         -1.39704       -1.83981       -0.35891
H         -0.92258       -0.97972        1.10444
H         -4.48198        0.99694        0.00465
