19
dsC7O2H10nsd_3368.xyz
C         -2.44638       -0.45666        0.63063
C         -1.18664       -0.61080       -0.22371
C          0.11941       -1.01296        0.51713
O          1.04196       -1.71270       -0.33646
C          1.73019       -0.49335       -0.68228
C          0.78663        0.37277        0.19583
C          1.38685        1.37921        1.15037
C         -0.50686        0.73989       -0.55108
O         -0.88878        1.74846       -1.07282
H         -2.24734        0.12300        1.53869
H         -3.22339        0.06778        0.06776
H         -2.83400       -1.43425        0.93245
H         -1.37912       -1.23867       -1.09918
H          0.03286       -1.45276        1.51378
H          2.76459       -0.49993       -0.31551
H          1.73336       -0.29678       -1.76079
H          1.78039        2.23775        0.59549
H          0.64043        1.76008        1.85439
H          2.20755        0.93910        1.72591
