19
dsC7O2H10nsd_2958.xyz
C          2.60717       -0.87838       -0.53180
C          1.10926       -0.66992       -0.50252
C          0.35971       -0.70367        0.82385
C         -1.10253       -1.07798        0.79237
C         -1.73899       -0.04053       -0.14029
O         -2.86864        0.01004       -0.52711
O         -0.79919        0.87834       -0.51284
C          0.48072        0.58527        0.04618
C          1.20856        1.83115        0.45932
H          3.09257       -0.47843        0.36341
H          2.84581       -1.94608       -0.58171
H          3.06017       -0.39281       -1.40251
H          0.57905       -1.09582       -1.35252
H          0.93473       -0.85209        1.73087
H         -1.31567       -2.08018        0.40907
H         -1.57945       -0.99955        1.77492
H          0.62547        2.38937        1.19840
H          2.17826        1.58858        0.89959
H          1.37827        2.48435       -0.40255
