19
dsC7O2H10nsd_2229.xyz
C         -1.72689       -1.48129       -0.12565
C         -0.83776       -0.26198       -0.07650
C         -1.35940        1.19800        0.00271
C          0.10518        1.48409        0.39081
O          0.80594        1.19218       -0.83035
C          0.37896       -0.17380       -1.04853
C          1.44497       -1.02661       -0.36423
O          1.29856       -0.66813        1.02313
C          0.11421        0.08755        1.10905
H         -2.27611       -1.53372       -1.07279
H         -1.14874       -2.40565       -0.02391
H         -2.46280       -1.46217        0.68456
H         -1.72020        1.67932       -0.90816
H         -2.07054        1.32955        0.82241
H          0.46519        2.41634        0.82195
H          0.20786       -0.36555       -2.10923
H          1.29636       -2.10852       -0.49519
H          2.44737       -0.75655       -0.70848
H         -0.28998        0.05876        2.12060
