19
dsC7O2H10nsd_5099.xyz
O          3.00307        0.08862       -0.63185
C          2.09045       -0.78961        0.00796
C          0.77041       -0.14379        0.34169
C          0.60169        1.31599        0.64854
C         -0.13998        0.72853       -0.53236
C         -1.34251       -0.03107       -0.01954
C         -2.74700        0.36391        0.09847
O         -2.30984       -0.59279       -0.88482
C         -0.45239       -0.92563        0.86589
H          3.35426        0.68498        0.03622
H          1.92771       -1.61638       -0.69369
H          2.52971       -1.22787        0.91945
H          0.06185        1.64452        1.53413
H          1.43529        1.95224        0.36908
H          0.00555        1.08161       -1.54550
H         -3.36400       -0.04522        0.89768
H         -3.07686        1.32250       -0.30015
H         -0.62057       -0.91537        1.94771
H         -0.48287       -1.95770        0.50449
