19
dsC7O2H10nsd_2737.xyz
C          2.23097       -0.11151       -0.98125
C          0.72097       -0.03538       -0.96159
C         -0.04952       -0.74394        0.14077
O          0.66135       -1.43876        1.11546
C         -1.49163       -1.16142       -0.13650
C         -2.19982        0.16051       -0.36653
C         -1.39197        1.21151       -0.19937
C         -0.00177        0.77256        0.11702
O          0.72342        1.41207        1.12828
H          2.67165        0.78304       -1.43713
H          2.63969       -0.22889        0.02404
H          2.56095       -0.97477       -1.56812
H          0.24946       -0.00660       -1.94147
H          0.87511       -0.80060        1.80934
H         -1.57474       -1.82930       -1.00289
H         -1.90415       -1.70514        0.72291
H         -3.24181        0.21423       -0.66085
H         -1.66986        2.25459       -0.29967
H          1.41214        1.95298        0.72863
