19
dsC7O2H10nsd_0345.xyz
C         -0.72082       -0.22443        1.31518
C         -0.84909        1.06310        0.47463
O          0.41623        1.67649        0.20499
C          1.34378        0.91973       -0.56097
C          1.76242       -0.43325        0.02865
O          0.86344       -1.52107       -0.13147
C         -0.50353       -1.31697        0.25286
C         -1.30609       -0.76668       -0.91891
C         -1.51276        0.54296       -0.78724
H          0.06434       -0.16798        2.07076
H         -1.66942       -0.41645        1.82569
H         -1.41814        1.84529        0.98326
H          0.99082        0.76894       -1.58988
H          2.23823        1.55104       -0.60139
H          2.67126       -0.75319       -0.49341
H          2.02698       -0.29058        1.08749
H         -0.85014       -2.30115        0.58151
H         -1.58877       -1.38188       -1.76552
H         -1.98594        1.19584       -1.51184
