19
dsC7O2H10nsd_5274.xyz
C         -2.81654       -0.35432       -0.30285
C         -1.73626        0.02514        0.71908
C         -0.34973        0.08413        0.11532
C          0.04483        1.24378       -0.83684
O          1.19977        1.57958       -0.02356
C          0.91709        0.51816        0.89537
C          1.56842       -0.85977        0.57129
O          1.58694       -1.00799       -0.84989
C          0.36043       -1.27278       -0.17416
H         -2.86233        0.37373       -1.11972
H         -2.62151       -1.33637       -0.74655
H         -3.80451       -0.39115        0.16531
H         -1.97495        0.99859        1.16517
H         -1.73977       -0.69914        1.54476
H          0.32970        0.96738       -1.85552
H         -0.67540        2.07149       -0.85531
H          0.91535        0.81768        1.94748
H          2.29801       -1.43050        1.13533
H         -0.08773       -2.25041       -0.31662
