19
dsC7O2H10nsd_0464.xyz
C         -2.90058        0.28313       -0.40193
O         -2.51163       -0.96446        0.17630
C         -1.65775        0.16636        0.37133
C         -0.30531        0.11455       -0.28081
C          0.52251        1.44023       -0.17214
C          1.64618        0.67075        0.55177
O          2.60612        0.09215       -0.35689
C          1.94116       -1.19389       -0.31715
C          0.79611       -0.63194        0.53655
H         -2.85137        0.32923       -1.48932
H         -3.77655        0.75344        0.04281
H         -1.66529        0.54917        1.39515
H         -0.41844       -0.27206       -1.29801
H          0.82290        1.91085       -1.11019
H          0.03689        2.18838        0.46339
H          2.12286        1.12190        1.42636
H          1.67926       -1.56257       -1.31710
H          2.56123       -1.94484        0.18939
H          0.47873       -1.19015        1.41653
