19
dsC7O2H10nsd_3733.xyz
C          2.75239       -0.07211       -0.69965
C          1.48205       -0.75018       -0.23581
C          1.08472       -0.71440        1.23523
C          0.32389        0.07753        0.22246
O          0.33032        1.51124        0.18974
C         -1.09492        1.55991       -0.07117
C         -1.14457        0.03473       -0.11240
C         -1.95527       -0.90234       -0.88335
O         -2.10241       -0.76595        0.54280
H          2.71282        0.14632       -1.77208
H          2.90021        0.87702       -0.17740
H          3.62659       -0.70540       -0.51572
H          1.22315       -1.66119       -0.77204
H          0.59505       -1.57685        1.67558
H          1.72399       -0.15224        1.90884
H         -1.65368        2.00633        0.75922
H         -1.32287        2.08656       -1.00430
H         -2.79283       -0.53640       -1.47597
H         -1.52545       -1.84534       -1.21826
