19
dsC7O2H10nsd_3247.xyz
O          2.89430       -0.26237        0.05934
C          1.55211       -0.09443        0.41476
C          0.69049        0.79072       -0.46725
O         -0.40520        1.50911        0.04113
C         -1.58316        0.72906        0.24596
C         -1.30365       -0.48251        1.17323
C         -0.80966       -1.20603       -0.11482
C         -1.82622       -0.30544       -0.89062
C          0.56712       -0.71308       -0.54054
H          3.37261        0.52899        0.33001
H          1.34129       -0.12016        1.48233
H          1.20354        1.32666       -1.26083
H         -2.36527        1.44350        0.50565
H         -0.62720       -0.33981        2.01757
H         -2.23594       -0.92680        1.53149
H         -0.90152       -2.29257       -0.16420
H         -1.57579       -0.01052       -1.91232
H         -2.84751       -0.69191       -0.84939
H          1.00076       -1.20102       -1.40851
