19
dsC7O2H10nsd_0076.xyz
C         -3.84286        0.28341       -0.49065
O         -2.80177       -0.21771        0.31155
C         -1.52210        0.09517       -0.19030
C         -0.47678       -0.50008        0.75491
C          0.92658       -0.19640        0.32477
C          1.83757       -1.06581       -0.19076
O          3.00676       -0.43582       -0.48502
C          2.84023        0.87034       -0.15132
C          1.59541        1.07942        0.34644
H         -3.80954       -0.13029       -1.51136
H         -4.78692       -0.00750       -0.02333
H         -3.80849        1.38216       -0.56749
H         -1.38928       -0.31415       -1.20616
H         -1.39227        1.18858       -0.26588
H         -0.66532       -0.10774        1.76106
H         -0.63117       -1.58280        0.80489
H          1.81029       -2.12381       -0.39535
H          3.69069        1.50923       -0.32342
H          1.19377        2.01818        0.69642
