19
dsC7O2H10nsd_0058.xyz
C          3.87465       -0.13949       -0.22471
C          2.39492        0.09673       -0.53364
C          1.46934       -0.37469        0.60522
C          0.02392       -0.13492        0.33777
C         -1.03792       -0.96583        0.13629
C         -2.17303       -0.11830       -0.09114
O         -3.46017       -0.48535       -0.33720
C         -1.72445        1.16307       -0.01367
O         -0.37907        1.15878        0.24937
H          4.51086        0.20268       -1.04661
H          4.18178        0.39738        0.67981
H          4.08272       -1.20335       -0.06334
H          2.21471        1.16195       -0.71556
H          2.11580       -0.42523       -1.45681
H          1.61040       -1.44723        0.77894
H          1.75994        0.13424        1.53447
H         -1.01899       -2.04556        0.14994
H         -3.50968       -1.44517       -0.34378
H         -2.19826        2.12345       -0.11107
