19
dsC7O2H10nsd_0857.xyz
O          3.10911       -0.13456       -0.45265
C          2.12765       -0.74767       -0.12258
C          0.98246       -0.16479        0.70174
C          0.68847        1.31207        0.38601
C         -0.46783        1.19850       -0.62307
C         -1.18461       -0.03713       -0.12013
C         -2.50794        0.01148        0.59651
C         -2.37114       -0.67427       -0.75681
O         -0.19637       -0.91351        0.39634
H          1.97232       -1.81454       -0.39622
H          1.24216       -0.31298        1.76101
H          0.36298        1.83546        1.28864
H          1.57765        1.80894       -0.00558
H         -1.10900        2.08175       -0.64720
H         -0.07921        1.02989       -1.63444
H         -2.62151       -0.63004        1.46304
H         -3.04240        0.95454        0.64859
H         -2.39936       -1.75803       -0.76811
H         -2.80790       -0.19957       -1.62926
