19
dsC7O2H10nsd_2580.xyz
C         -2.52631       -1.54175       -0.03168
C         -1.46963       -0.47362       -0.01341
C         -1.74797        0.82795        0.07215
C         -0.69201        1.89781        0.04696
O          0.58695        1.41414       -0.32771
C          0.91594        0.19532        0.30814
C         -0.03233       -0.93311       -0.10316
C          2.37338       -0.08670       -0.01869
O          2.87103       -1.18146        0.01615
H         -2.45392       -2.15046       -0.94228
H         -2.40606       -2.23244        0.81271
H         -3.53249       -1.11660        0.01356
H         -2.77562        1.17197        0.16289
H         -0.94561        2.67215       -0.68668
H         -0.63434        2.39987        1.03076
H          0.86352        0.32047        1.40788
H          0.20212       -1.26446       -1.12369
H          0.14077       -1.80245        0.54114
H          2.95138        0.82513       -0.28571
