19
dsC7O2H10nsd_5548.xyz
C         -2.84872       -0.39800        0.10077
O         -1.51936       -0.71681       -0.25555
C         -0.56391        0.08155        0.38896
C         -0.26082        1.45620       -0.27787
O          0.84157        2.01113        0.44329
C          1.11438        1.04085       -0.58786
C          0.87730       -0.33103        0.00687
C          1.23589       -1.64595       -0.61493
C          1.82713       -1.24538        0.71747
H         -3.11911        0.63054       -0.17971
H         -3.50065       -1.09096       -0.43601
H         -3.01535       -0.51401        1.18248
H         -0.76892        0.15967        1.46667
H         -0.93359        2.13158       -0.79365
H          1.78563        1.33931       -1.38516
H          0.46223       -2.40480       -0.63271
H          1.88176       -1.63801       -1.48714
H          1.46813       -1.75232        1.60734
H          2.87466       -0.96502        0.75551
