19
dsC7O2H10nsd_4462.xyz
O         -1.55736        1.47091       -0.28831
C         -1.20855        0.41670        0.60409
C         -1.55196       -0.98347       -0.00056
C         -0.35963       -1.35015       -0.93640
C          0.80355       -0.69403       -0.23552
C          1.03162       -0.81446        1.23663
C          0.30573        0.39642        0.67988
C          1.30112        1.27921       -0.08100
O          1.78343        0.14182       -0.86720
H         -2.51523        1.47739       -0.37667
H         -1.70718        0.56167        1.57413
H         -1.65110       -1.72156        0.80304
H         -2.51203       -0.96297       -0.52633
H         -0.27050       -2.42949       -1.09242
H         -0.48137       -0.87208       -1.91294
H          0.43511       -1.53662        1.78285
H          2.03962       -0.68085        1.61549
H          0.81382        2.01706       -0.72145
H          2.10904        1.74429        0.49562
