19
dsC7O2H10nsd_4201.xyz
O         -0.14051        1.76349       -0.87410
C          0.03515        1.10199        0.37490
C         -1.30035        0.65827        1.01839
C         -1.57399       -0.74548        0.48376
C         -1.44338       -0.97357       -0.99906
C         -0.28012       -1.29264       -0.08544
C          0.75768       -0.22352        0.09761
C          2.08273       -0.51157        0.66423
O          1.92241       -0.19088       -0.71938
H         -0.65208        2.56232       -0.71078
H          0.62070        1.73815        1.05212
H         -1.18746        0.62023        2.10846
H         -2.10216        1.37371        0.79957
H         -2.24273       -1.38431        1.04954
H         -1.97336       -1.82524       -1.41185
H         -1.36047       -0.11813       -1.65747
H          0.01883       -2.32560        0.04912
H          2.59540        0.24020        1.26415
H          2.36183       -1.54312        0.87858
