19
dsC7O2H10nsd_3614.xyz
C          3.25774       -0.00148       -0.50450
C          2.02226       -0.47416        0.24416
C          0.76998       -0.89558       -0.57484
C         -0.12138       -0.18249        0.50786
C          1.14229        0.57404        0.98184
C         -1.26626        0.61540       -0.03816
O         -1.20602        1.77375       -0.38817
C         -2.61102       -0.10871       -0.21149
O         -2.80517       -1.24730        0.12445
H          3.00768        0.80532       -1.20261
H          4.01769        0.37935        0.18687
H          3.71091       -0.81568       -1.08113
H          2.28976       -1.28110        0.93552
H          0.72461       -0.36958       -1.53378
H          0.58732       -1.95877       -0.74023
H         -0.49314       -0.91672        1.22541
H          1.19276        1.55804        0.50672
H          1.27864        0.69024        2.05921
H         -3.38838        0.53521       -0.67540
