19
dsC7O2H10nsd_3737.xyz
O          2.69527       -0.07619       -0.64396
C          1.50995       -0.73240       -0.29995
C          1.20646       -0.81858        1.16766
C          0.37981        0.06761        0.28084
C          0.25228        1.58468        0.28443
O         -1.13814        1.48494       -0.11573
C         -1.09032        0.05561       -0.05717
C         -2.21544       -0.74611        0.50794
C         -1.88852       -0.80216       -0.98111
H          2.56188        0.35402       -1.49569
H          1.25591       -1.59325       -0.92007
H          0.76540       -1.73393        1.54941
H          1.90783       -0.33292        1.83868
H          0.36021        2.07285        1.26044
H          0.85695        2.12058       -0.45739
H         -1.98214       -1.60856        1.12468
H         -3.10633       -0.20257        0.80366
H         -1.43717       -1.70439       -1.38209
H         -2.56487       -0.29369       -1.65996
