19
dsC7O2H10nsd_2275.xyz
C          1.86609       -1.34787        0.11796
C          0.72111       -0.38592       -0.04488
O          1.16314        0.81825       -0.70003
C          0.25297        1.83543       -0.25342
C         -0.70804        1.02724        0.65176
O          0.22059        0.08195        1.20217
C         -1.56741        0.16631       -0.27523
C         -1.70203       -1.29175        0.07763
C         -0.54823       -0.83879       -0.77951
H          2.26901       -1.61084       -0.86318
H          2.65833       -0.88715        0.71204
H          1.52407       -2.25973        0.61325
H          0.80312        2.60105        0.30560
H         -0.25347        2.30041       -1.10663
H         -1.20461        1.58004        1.44869
H         -2.27911        0.64748       -0.93502
H         -1.51002       -1.60958        1.09582
H         -2.49282       -1.83201       -0.43131
H         -0.47111       -1.11919       -1.82213
