19
dsC7O2H10nsd_3834.xyz
C          2.51728        0.13986       -0.60373
C          1.42197       -0.49817        0.24742
C          0.30708       -1.23760       -0.58072
C         -0.93856       -0.47302       -0.10311
O         -2.13931       -0.83635       -0.67535
C         -0.66504       -0.37407        1.45742
C          0.54072        0.52000        1.01990
C         -0.43441        0.97585       -0.07579
O         -0.85221        2.00731       -0.52077
H          2.09579        0.84029       -1.33360
H          3.22880        0.69428        0.01744
H          3.07703       -0.62185       -1.15627
H          1.87824       -1.18873        0.96434
H          0.44839       -1.13442       -1.66054
H          0.23440       -2.30318       -0.34757
H         -2.69149       -0.04652       -0.73054
H         -1.44357        0.16753        1.99752
H         -0.41530       -1.31350        1.95543
H          1.02571        1.22140        1.69440
