19
dsC7O2H10nsd_6004.xyz
O          3.59368       -0.65362       -0.13772
C          2.36048       -0.36765        0.50278
C          1.15463       -0.59017       -0.41759
C         -0.15872       -0.36434        0.29991
C         -0.73069        1.00892        0.44152
O          0.00918        2.05450       -0.10935
C         -1.41338        0.01361       -0.49641
C         -2.69066       -0.54050       -0.16777
C         -3.76378       -1.00068        0.12452
H          3.71300       -0.00758       -0.84108
H          2.30878       -1.04807        1.36037
H          2.33656        0.65912        0.89694
H          1.22852        0.09557       -1.26912
H          1.19564       -1.61047       -0.81568
H         -0.34344       -1.02605        1.14162
H         -1.26243        1.24585        1.36181
H         -0.60421        2.73561       -0.40479
H         -1.23244        0.20469       -1.55104
H         -4.71011       -1.41084        0.37570
