19
dsC7O2H10nsd_2700.xyz
C         -2.62519       -1.52164       -0.05367
C         -1.50933       -0.54593       -0.34582
C         -0.13442       -0.74687        0.18747
C          1.10569       -0.47406       -0.64291
C          2.30980       -0.15224        0.21595
O          3.37178       -0.71560        0.15298
C         -1.01218        0.39261        0.75254
C         -0.74196        1.80601        0.41264
O         -0.39054        2.20707       -0.67589
H         -2.61969       -2.34519       -0.77577
H         -2.52167       -1.95536        0.94626
H         -3.60344       -1.03330       -0.10930
H         -1.55248       -0.05672       -1.31609
H         -0.02686       -1.56977        0.89127
H          1.34732       -1.33894       -1.26838
H          0.91981        0.39114       -1.29048
H          2.14439        0.67653        0.94351
H         -1.40087        0.23230        1.75325
H         -0.89099        2.52023        1.25177
