19
dsC7O2H10nsd_2187.xyz
O         -2.38818        0.10351       -0.38935
C         -1.02052        0.01294       -0.08364
C         -0.26068        1.26598       -0.56964
C          1.14901        1.00750       -0.00257
O          1.81967        0.00619       -0.80549
C          1.13842       -1.01893       -0.04638
C         -0.27359       -1.23426       -0.62724
C          0.89231       -0.02891        1.13854
C         -0.60694       -0.02307        1.41200
H         -2.81453       -0.71257       -0.10609
H         -0.24215        1.36898       -1.65693
H         -0.71758        2.16286       -0.13759
H          1.76707        1.89335        0.15403
H          1.74547       -1.91825        0.07448
H         -0.25486       -1.29106       -1.71802
H         -0.73204       -2.15096       -0.23303
H          1.59892       -0.05243        1.96505
H         -0.95746       -0.92307        1.92979
H         -0.95278        0.85797        1.96061
