19
dsC7O2H10nsd_1251.xyz
C          1.46612       -1.88767       -0.13112
C          1.39943       -0.36441       -0.29636
C          2.49061        0.33120        0.52747
C          0.00601        0.16684        0.09674
O         -0.97147       -0.50798       -0.74822
C         -2.16613       -0.77481       -0.19496
O         -2.50690       -0.52773        0.92760
C         -0.13840        1.60894       -0.07894
C         -0.24840        2.79515       -0.23351
H          1.31397       -2.17560        0.91604
H          0.71011       -2.39183       -0.73668
H          2.44941       -2.25777       -0.43642
H          1.54556       -0.11618       -1.35487
H          2.37002        0.12064        1.59666
H          3.47763       -0.03315        0.22787
H          2.47008        1.41503        0.39153
H         -0.21823       -0.09698        1.13596
H         -2.79143       -1.27427       -0.95125
H         -0.35562        3.84444       -0.35987
