19
dsC7O2H10nsd_4770.xyz
C         -3.00516       -0.01771       -0.41739
C         -1.51623        0.09046       -0.75265
C         -0.61708       -0.33479        0.41347
O         -0.83093        0.43741        1.58472
C          0.86450       -0.30771        0.02666
C          1.76177       -1.39842        0.45216
O          1.27240       -1.33869       -0.88688
C          1.40942        1.01148       -0.20663
C          1.80637        2.13508       -0.37113
H         -3.62217        0.33379       -1.24942
H         -3.28776       -1.05522       -0.20692
H         -3.24695        0.57752        0.46716
H         -1.26939       -0.53493       -1.61844
H         -1.26382        1.12225       -1.03140
H         -0.85822       -1.36597        0.69555
H         -0.56610        1.34379        1.38372
H          2.82513       -1.20031        0.56960
H          1.35563       -2.19795        1.06994
H          2.18036        3.11696       -0.52955
