19
dsC7O2H10nsd_0782.xyz
O         -1.33907        2.28703       -0.26175
C         -0.34454        1.80522        0.21800
C         -0.01577        0.32172        0.22542
C          1.33657        0.10139       -0.44245
C          2.61606        0.21701        0.35246
C          2.14017       -1.13219       -0.12054
C         -1.11720       -0.49982       -0.40835
C         -2.22784       -1.04769        0.37387
O         -1.14744       -1.88393       -0.05291
H          0.43802        2.44417        0.68622
H          0.07986        0.02120        1.27979
H          1.37980        0.44685       -1.47253
H          3.47985        0.66028       -0.12987
H          2.54020        0.43965        1.41199
H          2.67764       -1.61352       -0.92942
H          1.72463       -1.81819        0.60820
H         -1.28995       -0.30437       -1.46650
H         -2.27663       -0.85854        1.44566
H         -3.18608       -1.23620       -0.10665
