19
dsC7O2H10nsd_4247.xyz
C          2.85301       -0.55054        0.09123
C          1.46852       -0.22963       -0.43928
O          1.14747        1.17990       -0.32195
C          0.05850        0.92193        0.59707
C         -1.31127        1.31385        0.00928
C         -1.87108        0.02133       -0.55946
O         -2.16181       -0.94625        0.46206
C         -0.95812       -1.10278       -0.29527
C          0.26132       -0.61170        0.44678
H          3.61216       -0.00954       -0.48187
H          2.94711       -0.26136        1.14271
H          3.05811       -1.62354        0.00547
H          1.37963       -0.55712       -1.48508
H          0.25602        1.37001        1.57579
H         -1.98752        1.72070        0.76796
H         -1.16809        2.07275       -0.76590
H         -2.56455        0.02859       -1.39672
H         -0.90815       -1.98813       -0.92657
H          0.48461       -1.19648        1.34125
