19
dsC7O2H10nsd_1615.xyz
C          1.40136        1.74401        0.01961
C          1.21352        0.24405        0.03479
C          2.25230       -0.62560        0.63033
O          2.14654       -0.48755       -0.77629
C         -0.19047       -0.35624       -0.00886
O         -0.32740       -1.56030       -0.08155
C         -1.36666        0.55558        0.04954
C         -2.60980        0.02749        0.75881
C         -2.60751        0.11921       -0.72455
H          0.95312        2.19175       -0.87327
H          0.95183        2.21407        0.90024
H          2.46827        1.97849        0.01257
H          3.12216       -0.15650        1.08995
H          1.95538       -1.59580        1.02143
H         -1.17884        1.61849        0.11359
H         -2.50787       -0.95846        1.19710
H         -3.18799        0.74308        1.33183
H         -2.50294       -0.80422       -1.28186
H         -3.18267        0.90099       -1.20684
