19
dsC7O2H10nsd_3473.xyz
C         -2.05152       -0.93627       -0.23836
C         -0.62219       -0.48836       -0.06466
C          0.17618       -0.88952        1.20178
C          1.32391       -1.01638        0.17114
O          0.33014       -1.25294       -0.87238
C          1.94131        0.34715       -0.05490
C          1.08653        1.32143       -0.36520
C         -0.39455        1.00455       -0.42017
O         -1.15430        1.88068        0.41097
H         -2.35607       -0.82545       -1.28499
H         -2.16754       -1.98564        0.04524
H         -2.71340       -0.31903        0.37516
H          0.29357       -0.17716        2.02141
H         -0.15511       -1.85872        1.57987
H          2.04219       -1.83388        0.25412
H          3.01159        0.49791        0.04028
H          1.38864        2.34653       -0.55877
H         -0.78222        1.17359       -1.43285
H         -0.72642        1.90432        1.27408
