19
dsC7O2H10nsd_0390.xyz
C         -2.50011       -0.14374        0.20982
O         -1.69552       -0.70338       -0.83577
C         -1.08171        0.19005        0.07483
C         -0.39416        1.48958       -0.35664
C          0.85208        1.08311        0.49113
C          2.05527        0.53272       -0.28950
C          1.63172       -0.91332       -0.60594
O          0.86344       -1.33306        0.52051
C          0.11841       -0.22292        0.96020
H         -3.25693        0.57005       -0.11467
H         -2.81996       -0.84663        0.97870
H         -0.21905        1.55974       -1.43434
H         -0.89287        2.40347       -0.02349
H          1.13448        1.79569        1.26600
H          2.28407        1.11058       -1.18941
H          2.94432        0.52909        0.34846
H          1.02560       -0.95948       -1.52229
H          2.47040       -1.60565       -0.71198
H         -0.10246       -0.35832        2.02177
