19
dsC7O2H10nsd_2998.xyz
O         -3.20724        0.08361       -0.50890
C         -1.81153        0.00346       -0.53255
C         -1.12298       -0.75247        0.58156
C          0.30256       -1.22838        0.35002
C          1.05247       -0.00152       -0.24503
C          0.30036        1.23804        0.31795
C         -1.12417        0.76671        0.56041
C          2.51192        0.00228        0.14186
O          3.44083       -0.01671       -0.62235
H         -3.55867       -0.76701       -0.79254
H         -1.37083       -0.00611       -1.53086
H         -1.75795       -1.29530        1.27324
H          0.74883       -1.51264        1.31258
H          0.38129       -2.09861       -0.30971
H          1.00504       -0.01598       -1.33636
H          0.74418        1.54636        1.27396
H          0.37504        2.09170       -0.36293
H         -1.76415        1.32999        1.22962
H          2.67669        0.02363        1.24764
