19
dsC7O2H10nsd_4480.xyz
O         -1.96095        1.36577       -0.21830
C         -1.20616        0.47632        0.58587
C         -1.47739       -1.04034        0.24510
O         -0.39052       -1.56048       -0.56900
C          0.45887       -0.47607       -0.86464
C          1.90428       -0.24128       -0.30730
C          1.49763        1.28316       -0.24909
C          0.27801        0.48868        0.30496
C          1.30382       -0.38129        1.11033
H         -1.65856        1.27541       -1.12913
H         -1.48808        0.69953        1.61763
H         -1.54450       -1.65348        1.15031
H         -2.42159       -1.11902       -0.30551
H          0.29116       -0.10351       -1.88593
H          2.84826       -0.64223       -0.67833
H          2.05753        1.89555        0.45992
H          1.36056        1.79742       -1.20437
H          1.83008        0.13274        1.91837
H          0.98252       -1.37987        1.40406
