19
dsC7O2H10nsd_4380.xyz
C          2.35668       -1.20925       -0.16654
C          1.57071        0.07017       -0.41002
O          1.35688        0.81808        0.77606
C          0.06150        0.48685        1.23778
C         -0.72817        0.29204       -0.07884
C         -1.25218        1.62155       -0.64156
O          0.28847       -0.23701       -0.94799
C         -1.80490       -0.68716        0.05857
C         -2.70953       -1.46568        0.19563
H          2.46183       -1.76333       -1.10343
H          3.35289       -0.96856        0.21513
H          1.83974       -1.84627        0.55637
H          2.10814        0.72969       -1.10519
H          0.05628       -0.43687        1.83120
H         -0.31272        1.31214        1.84674
H         -1.60754        1.47604       -1.66392
H         -2.07829        2.00106       -0.03337
H         -0.44419        2.35838       -0.64622
H         -3.50368       -2.16200        0.30809
