19
dsC7O2H10nsd_2179.xyz
O         -2.19392       -1.14688       -0.18692
C         -1.09034       -0.32251        0.03463
C         -1.30387        1.15939        0.41840
C         -0.01081        1.54070       -0.34872
C          1.29070        1.17204        0.40793
C          1.10175       -0.30521        0.02407
O          2.29744       -0.97281       -0.23411
C          0.01142       -1.01465        0.86081
C         -0.00418        0.12494       -1.03023
H         -2.84102       -0.65502       -0.70368
H         -2.18160        1.55587       -0.10687
H         -1.38506        1.41617        1.48011
H         -0.01835        2.48079       -0.89824
H          2.16433        1.56469       -0.11980
H          1.36906        1.42247        1.47110
H          2.09717       -1.89502       -0.42701
H         -0.00853       -2.08424        0.61990
H          0.01481       -0.89013        1.94823
H         -0.00704       -0.08628       -2.09688
