19
dsC7O2H10nsd_2863.xyz
C          1.72789       -1.29099        0.96352
C          0.90138       -0.37537        0.12183
C          1.25424        0.69110       -0.87864
C          0.41919        1.76464       -0.17036
C         -0.37077        0.58667        0.41991
O         -1.08005        0.71612        1.58967
C         -1.07298       -0.07632       -0.79405
O         -1.88795       -1.16253       -0.36878
C          0.31344       -0.46241       -1.27794
H          2.19699       -0.75077        1.79364
H          1.12905       -2.10004        1.39893
H          2.52745       -1.75317        0.37366
H          2.19963        0.81967       -1.39003
H          1.00803        2.28183        0.59221
H         -0.14068        2.49497       -0.76662
H         -1.76675        0.03297        1.55545
H         -1.71453        0.55841       -1.41541
H         -1.29906       -1.89014       -0.13604
H          0.56941       -1.14646       -2.07848
