19
dsC7O2H10nsd_1368.xyz
C          3.23448        0.60366        0.73817
C          2.09095       -0.34083        0.47570
O          2.08377       -1.00753       -0.79329
C          1.04149       -0.06592       -0.51728
C         -0.35446       -0.63095       -0.39787
C         -1.33319        0.38373        0.22806
O         -1.38560        1.59685       -0.52173
C         -2.66457       -0.20192        0.40292
C         -3.75924       -0.68983        0.49663
H          3.42082        1.23797       -0.13256
H          3.01410        1.24561        1.59790
H          4.15171        0.04778        0.95922
H          1.82550       -0.99527        1.30922
H          1.11588        0.86220       -1.08306
H         -0.72813       -0.91335       -1.39048
H         -0.33557       -1.54388        0.20614
H         -0.94431        0.68440        1.20898
H         -1.90973        1.42503       -1.31225
H         -4.72835       -1.11264        0.59913
