19
dsC7O2H10nsd_5012.xyz
C         -2.88442       -0.52368       -0.01488
C         -1.45514       -1.05988        0.12402
C         -0.41653        0.01897        0.11178
C         -0.22305        1.28004        1.00544
C          0.74498        1.39609       -0.19617
O         -0.34958        0.92871       -1.07872
C          1.12063       -0.07277        0.02535
C          2.19019       -0.84668        0.63690
O          1.88306       -0.91137       -0.78154
H         -3.14934        0.12393        0.82699
H         -2.98725        0.06062       -0.93298
H         -3.60519       -1.34550       -0.04674
H         -1.34615       -1.62771        1.05681
H         -1.22688       -1.75277       -0.69454
H         -1.05311        1.98517        0.96794
H          0.19369        1.15094        2.00818
H          1.34260        2.24079       -0.53477
H          3.14087       -0.37472        0.87914
H          1.96295       -1.75203        1.19735
