19
dsC7O2H10nsd_3075.xyz
C          2.67550        0.70402       -0.15033
C          1.19898        0.49582       -0.44514
C          0.70007       -0.98683       -0.48227
O          0.65943       -0.96792        0.96806
C          0.24639        0.41106        0.79412
C         -1.14471        0.27161        0.09577
C         -2.08443        1.42547       -0.06910
O         -1.68897       -1.04715        0.23103
C         -0.79671       -0.78675       -0.85588
H          2.87568        1.74542        0.12383
H          3.00012        0.06214        0.67218
H          3.28531        0.47297       -1.03045
H          0.85629        1.13375       -1.26852
H          1.26732       -1.81339       -0.90993
H          0.34683        1.03209        1.68492
H         -2.53506        1.70014        0.89124
H         -1.55778        2.30602       -0.45320
H         -2.89110        1.17254       -0.76179
H         -1.18181       -0.89758       -1.86392
