19
dsC7O2H10nsd_0248.xyz
C         -1.78760        0.87773        0.31727
O         -1.99822       -0.11981       -0.67246
C         -1.32289       -1.28598       -0.21499
C         -0.08533       -0.80312        0.58642
C          1.23313       -0.96198       -0.13996
O          2.29995       -0.23307        0.48208
C          1.67068        0.33099       -0.67772
C          0.64240        1.39188       -0.35518
C         -0.30806        0.74322        0.69106
H         -2.05040        1.84484       -0.12043
H         -2.43410        0.70366        1.19386
H         -1.98616       -1.88452        0.42767
H         -1.06771       -1.88730       -1.09356
H         -0.04620       -1.28224        1.56825
H          1.51406       -1.91629       -0.58064
H          2.30796        0.41983       -1.55434
H          1.10129        2.31256        0.01801
H          0.09324        1.63979       -1.27144
H         -0.09990        1.11632        1.69425
