19
dsC7O2H10nsd_3709.xyz
C          2.25668        0.85025       -0.82740
C          1.66270       -0.44398       -0.31565
C          1.35577       -0.62416        1.17052
C          0.25461       -0.49777        0.16649
O         -0.64743       -1.58373       -0.11260
C         -1.76549       -0.68504       -0.06089
C         -1.64750        0.37597       -1.12886
C         -0.86499        0.51806        0.14727
O         -0.93310        1.66283        0.90982
H          3.33976        0.87969       -0.66560
H          2.07365        0.97449       -1.90003
H          1.81597        1.71119       -0.31479
H          2.00140       -1.34819       -0.81523
H          1.51877       -1.60122        1.61194
H          1.54542        0.21690        1.83246
H         -2.68487       -1.03815        0.38890
H         -1.16194        0.15318       -2.07513
H         -2.50007        1.04687       -1.18307
H         -0.81454        1.41242        1.83384
