19
dsC7O2H10nsd_3984.xyz
C         -0.43504        1.87973       -0.45427
C          0.15586        0.52230       -0.20667
C         -0.06908       -0.82395       -0.86191
C          1.42005       -1.16195       -0.81745
C          1.65940        0.23478       -0.13866
O          2.19116        0.27812        1.16619
C         -0.55450       -0.60010        0.56468
C         -2.01778       -0.49810        0.75723
O         -2.81147       -0.12557       -0.07898
H          0.02620        2.34077       -1.33501
H         -1.51074        1.81749       -0.62696
H         -0.25658        2.54258        0.40007
H         -0.78725       -1.07948       -1.63094
H          1.69762       -2.03535       -0.21907
H          1.88736       -1.23553       -1.80243
H          2.20645        0.90985       -0.81137
H          3.13140        0.07783        1.11788
H         -0.01735       -1.06515        1.38620
H         -2.36819       -0.80959        1.76623
