19
dsC7O2H10nsd_6085.xyz
O          4.19739        0.37019       -0.15226
C          3.08004       -0.44707        0.15139
C          1.74874        0.18627       -0.25481
C          0.53913       -0.67223        0.13999
C         -0.76660       -0.04192       -0.27658
O         -1.22369        1.06737        0.49543
C         -1.99242       -0.14869        0.54302
C         -3.30579       -0.12734       -0.04247
C         -4.41011       -0.12761       -0.51699
H          4.22323        0.49141       -1.10679
H          3.17608       -1.44543       -0.30780
H          3.10853       -0.59240        1.23727
H          1.66687        1.17454        0.21035
H          1.74409        0.34663       -1.34296
H          0.61338       -1.66516       -0.32386
H          0.53040       -0.82434        1.22580
H         -0.90954        0.08718       -1.35107
H         -1.91613       -0.67899        1.49205
H         -5.38446       -0.12240       -0.93955
