19
dsC7O2H10nsd_1790.xyz
C         -2.24571       -1.27703       -0.03802
C         -1.15946       -0.24251        0.01323
C         -0.43100        0.22857        1.30001
C          0.08183        1.32997        0.31937
C         -1.32791        1.26092       -0.34223
C          0.86806        0.44414       -0.68309
O         -0.05181       -0.63378       -0.84262
C          2.22070        0.01240       -0.15316
O          2.46091       -1.03914        0.37811
H         -1.86502       -2.24518        0.30079
H         -3.08228       -0.98676        0.60354
H         -2.61547       -1.39566       -1.06113
H         -1.10782        0.63249        2.05464
H          0.29127       -0.46106        1.73934
H          0.54281        2.26026        0.64770
H         -2.09252        1.76227        0.25403
H         -1.42111        1.51960       -1.40019
H          1.03061        0.96425       -1.63976
H          3.00770        0.79439       -0.27962
