19
dsC7O2H10nsd_2650.xyz
C          1.82959        1.54272       -0.46825
C          1.09738        0.80409        0.62970
C          1.17898       -0.72373        0.73576
O          1.84546       -1.45144       -0.24713
C         -0.09437       -0.05495        0.32671
O         -0.51505       -0.30035       -1.03800
C         -1.85930       -0.50714       -0.56841
C         -2.40460        0.74037        0.04837
C         -1.49827       -0.17118        0.85901
H          2.84612        1.79506       -0.14990
H          1.90505        0.92873       -1.36733
H          1.31531        2.47216       -0.73265
H          1.04868        1.31714        1.58839
H          1.25765       -1.16495        1.72734
H          1.20926       -1.57806       -0.96567
H         -2.43014       -1.30926       -1.01912
H         -2.05043        1.70739       -0.29600
H         -3.45322        0.70082        0.32744
H         -1.78805       -0.63582        1.79126
