19
dsC7O2H10nsd_3126.xyz
C         -1.90728        1.33835       -0.75926
C         -1.02827        0.70147        0.32592
C          0.42689        1.12122        0.27759
C          1.36448        0.52100        1.31404
C          1.21981       -0.12117       -0.03537
C          2.33034       -0.25232       -1.03501
O          0.31885       -1.22504       -0.06756
C         -0.96940       -0.82409        0.14150
O         -1.88220       -1.59667        0.16310
H         -1.47367        1.19326       -1.75405
H         -2.90103        0.88426       -0.75069
H         -2.01192        2.41347       -0.58705
H         -1.48447        0.88856        1.30476
H          0.68610        2.07327       -0.17155
H          2.28454        1.05763        1.51886
H          0.93605        0.00995        2.17099
H          1.93189       -0.35008       -2.04975
H          2.97561        0.62981       -0.99960
H          2.94432       -1.13324       -0.82264
