19
dsC7O2H10nsd_5086.xyz
C          2.98116       -0.90661       -0.21666
C          1.84814       -0.53977        0.75236
C          0.77564        0.26411        0.08815
C          0.74581        1.74382       -0.13251
C         -0.42424        1.06511        0.55872
C         -1.20696        0.27178       -0.48982
O          0.00424       -0.38217       -0.94668
C         -2.15598       -0.73534        0.13164
O         -3.34148       -0.56153        0.23402
H          3.73761       -1.51796        0.28344
H          2.59173       -1.47399       -1.06667
H          3.47124       -0.00921       -0.60700
H          1.40554       -1.45265        1.16899
H          2.24122        0.03880        1.59637
H          1.37164        2.32855        0.53512
H          0.63675        2.14520       -1.13619
H         -0.77399        1.32830        1.54772
H         -1.71701        0.83663       -1.27780
H         -1.64830       -1.65256        0.50604
