19
dsC7O2H10nsd_2848.xyz
C         -2.62513       -0.17259       -0.44548
C         -1.18933       -0.12858       -0.05023
O         -0.18910       -0.49990       -1.01934
C          0.75813       -0.57708        0.10299
C          1.89476       -1.52238       -0.11797
C         -0.42885       -0.63749        1.12632
C         -0.53320        0.87802        0.90151
C          0.92570        0.93576        0.44288
O          1.30972        1.78279       -0.59913
H         -3.25964        0.08291        0.40819
H         -2.82875        0.54540       -1.24724
H         -2.90375       -1.17029       -0.79828
H          2.53079       -1.56766        0.77132
H          1.53219       -2.52916       -0.34335
H          2.50565       -1.17706       -0.95875
H         -0.67204       -1.27008        1.96803
H         -1.09888        1.60349        1.47248
H          1.60814        1.09065        1.28281
H          0.80883        1.47470       -1.36748
