19
dsC7O2H10nsd_1000.xyz
C         -3.63248       -1.23112        0.08110
C         -2.41361       -0.45000       -0.06956
C         -1.40994        0.20009       -0.21599
C         -0.18641        0.99963       -0.32367
O         -0.35093        2.30974        0.21271
C          0.97987        0.27473        0.33095
O          2.28276        0.67094       -0.08925
C          1.83758       -0.65407       -0.41375
C          2.56226       -1.79848        0.24483
H         -3.85526       -1.79374       -0.83204
H         -3.54872       -1.95013        0.90324
H         -4.49217       -0.58496        0.28943
H          0.07288        1.15695       -1.37729
H         -0.79315        2.21982        1.06409
H          0.87175        0.12977        1.40824
H          1.61931       -0.78951       -1.47511
H          3.53406       -1.96403       -0.23172
H          2.73178       -1.59168        1.30483
H          1.98121       -2.72255        0.15525
