19
dsC7O2H10nsd_2163.xyz
C         -1.55910       -1.04531       -1.22141
C         -0.69471       -0.48980       -0.13558
O         -1.34180       -0.04352        1.12526
C          0.09515        0.21921        1.32592
C          0.48965       -1.11605        0.65284
C          1.78223       -0.91843       -0.14317
C          1.55646        0.51672       -0.71290
C          0.19296        0.81195       -0.11719
O         -0.37620        2.03274       -0.41315
H         -2.23845       -0.27555       -1.60180
H         -0.94203       -1.39680       -2.05477
H         -2.15541       -1.88610       -0.85421
H          0.40341        0.63993        2.28378
H          0.31241       -2.04034        1.20059
H          2.66885       -0.97950        0.49451
H          1.89620       -1.66841       -0.93163
H          2.31000        1.23507       -0.37768
H          1.53514        0.54706       -1.80619
H         -1.22190        2.04115        0.05946
