19
dsC7O2H10nsd_5953.xyz
C          3.34949       -0.02589       -0.03369
O          1.99425       -0.38081        0.09908
C          1.12528        0.71579       -0.04801
C         -0.29915        0.24812        0.03437
C         -0.81458       -0.88953        0.97491
C         -1.86797       -0.87847       -0.17133
O         -0.77493       -0.56587       -1.09373
C         -2.51895        0.50745        0.01758
C         -1.44331        1.28265        0.15829
H          3.65776        0.70775        0.72878
H          3.93906       -0.93670        0.09402
H          3.56441        0.40116       -1.02592
H          1.30515        1.46746        0.74112
H          1.28086        1.21572       -1.01928
H         -0.16359       -1.76433        0.94917
H         -1.13285       -0.62958        1.98646
H         -2.47173       -1.73850       -0.45628
H         -3.57234        0.74440        0.03922
H         -1.34620        2.34533        0.32709
