19
dsC7O2H10nsd_1822.xyz
C         -0.08738        2.14125       -0.06511
C         -0.41243        0.68226        0.05510
C         -1.40527        0.05592        1.07047
C         -1.47558       -0.96617       -0.08421
C         -0.09073       -1.64908       -0.06616
C          0.72494       -0.35043        0.05661
C          2.04680       -0.18166        0.65878
O          1.86070       -0.12499       -0.76441
O         -1.25681        0.13212       -1.02157
H          0.59019        2.30496       -0.90786
H         -0.99762        2.72546       -0.22005
H          0.40245        2.50085        0.84566
H         -1.03855       -0.26292        2.05044
H         -2.31782        0.64749        1.15444
H         -2.35692       -1.56839       -0.30108
H          0.05082       -2.34257        0.76739
H          0.12240       -2.16163       -1.00660
H          2.32421        0.76126        1.12883
H          2.58767       -1.05408        1.02385
