19
dsC7O2H10nsd_1665.xyz
O         -1.76781       -1.40569       -0.00002
C         -0.83642       -0.37423       -0.00000
C          0.29041       -0.42745        1.09306
C          1.31114       -0.09761        0.00002
C          2.23744        1.08667       -0.00006
C          2.78958       -0.32279        0.00006
C          0.29044       -0.42763       -1.09299
C         -1.53569        0.96113       -0.00009
O         -2.74085        1.05274        0.00009
H         -2.63911       -0.97659        0.00001
H          0.20615        0.25382        1.94527
H          0.36964       -1.45470        1.45965
H          2.32764        1.66886       -0.91205
H          2.32762        1.66899        0.91185
H          3.25077       -0.69005       -0.91131
H          3.25074       -0.68993        0.91149
H          0.20619        0.25348       -1.94532
H          0.36968       -1.45494       -1.45940
H         -0.88144        1.85608       -0.00079
