19
dsC7O2H10nsd_0872.xyz
O          3.13787       -0.06847        0.29826
C          2.24218       -0.71790       -0.17676
C          0.83640       -0.20600       -0.41991
C          0.65101        1.26208       -0.02625
C         -0.78414        1.73102       -0.29427
C         -1.82091        0.84403        0.42591
C         -1.60803       -0.62916        0.11238
O         -2.49164       -1.35801       -0.27103
C         -0.17780       -1.12437        0.31262
H          2.39808       -1.78229       -0.46993
H          0.65514       -0.32492       -1.50088
H          0.89611        1.37864        1.03668
H          1.36783        1.88317       -0.57119
H         -0.90877        2.77139        0.02253
H         -0.98249        1.70859       -1.37365
H         -1.70703        0.97221        1.51192
H         -2.84644        1.11200        0.16244
H          0.04180       -1.10406        1.38948
H         -0.11625       -2.16108       -0.02745
