19
dsC7O2H10nsd_3626.xyz
C          1.65552        1.82621       -0.78900
C          1.00383        0.89602        0.22145
C         -0.30871        1.35957        0.91577
C         -0.89650       -0.08089        0.70532
C         -2.30394       -0.13952        0.18387
O         -2.60106       -0.38596       -0.95859
C          0.26337       -0.36048       -0.30025
C          0.93545       -1.69780       -0.17303
O          2.03871       -1.86906        0.28358
H          2.49918        1.33439       -1.28439
H          0.94321        2.13459       -1.56279
H          2.03533        2.73185       -0.30360
H          1.73795        0.57928        0.96835
H         -0.24178        1.71385        1.94590
H         -0.84658        2.10315        0.31942
H         -0.82437       -0.66736        1.62781
H         -3.08698        0.10292        0.93820
H         -0.13016       -0.25078       -1.31812
H          0.31876       -2.56033       -0.51546
