19
dsC7O2H10nsd_5107.xyz
O         -2.46461       -0.93883        0.47529
C         -2.07492        0.24044       -0.20214
C         -0.57908        0.39185       -0.25612
C          0.10529        1.72286       -0.41103
C          0.32551        0.89074        0.84309
C          1.47813       -0.08695        0.91325
C          2.41658       -0.24171       -0.26971
C          1.19428       -1.11188       -0.15569
O          0.02745       -0.74408       -0.85726
H         -1.95426       -1.65012        0.07069
H         -2.47838        0.26311       -1.22796
H         -2.50967        1.08585        0.34048
H          0.89948        1.82653       -1.13964
H         -0.51465        2.60778       -0.30366
H         -0.07788        1.25020        1.78203
H          1.82724       -0.36979        1.89857
H          2.45402        0.52172       -1.03685
H          3.37088       -0.71905       -0.07148
H          1.28581       -2.18496       -0.02632
