19
dsC7O2H10nsd_0993.xyz
C         -3.42671        0.30230       -0.04442
C         -2.01480       -0.04897       -0.01939
C         -0.84094       -0.31249        0.00899
C          0.56838       -0.70370        0.04248
C          1.12072       -0.72882        1.47555
C          0.76006       -2.06114       -0.64698
O          1.37606        0.20604       -0.79029
C          1.40188        1.51771       -0.52282
O          0.84852        2.09676        0.37028
H         -3.94155       -0.15967       -0.89376
H         -3.93052       -0.02753        0.87069
H         -3.55802        1.38702       -0.12157
H          0.60162       -1.50169        2.04869
H          2.18817       -0.96833        1.45328
H          0.97382        0.23308        1.96417
H          0.19205       -2.82865       -0.11640
H          0.40818       -2.01468       -1.67953
H          1.81904       -2.33372       -0.64450
H          2.03901        2.00252       -1.28157
