19
dsC7O2H10nsd_1734.xyz
C         -0.08303        2.26867       -0.40658
C         -0.26950        0.82383       -0.05619
C         -1.58784        0.06150       -0.23680
O         -1.29263       -1.33667       -0.39769
C         -0.31012       -1.14790        0.66914
C         -1.00096        0.17869        1.12761
C          0.78799       -0.30414       -0.04921
C          2.01361       -0.01082        0.79646
O          1.21066       -0.80453       -1.28943
H          0.22278        2.37524       -1.45311
H         -1.00942        2.83729       -0.27048
H          0.68648        2.73764        0.21663
H         -2.48513        0.46364       -0.68883
H         -0.10038       -2.05344        1.23550
H         -1.36392        0.55727        2.07216
H          2.61164       -0.91965        0.91068
H          2.64027        0.74157        0.30816
H          1.73666        0.35882        1.78731
H          0.41581       -1.18782       -1.68756
