19
dsC7O2H10nsd_0356.xyz
C         -1.75968       -1.03644       -0.04160
O         -2.65497       -0.00000        0.40629
C         -1.75973        1.03643       -0.04169
C         -0.82130       -0.00001       -0.70616
C          0.61203        0.00003       -0.29124
C          1.70534       -1.09259       -0.47039
C          2.22972       -0.00003        0.48667
C          1.70518        1.09288       -0.46990
O          0.91584       -0.00029        1.17099
H         -1.30208       -1.57465        0.79731
H         -2.25518       -1.74955       -0.71004
H         -2.25526        1.74946       -0.71020
H         -1.30216        1.57475        0.79718
H         -0.87978       -0.00006       -1.79789
H          1.48418       -2.05242       -0.00176
H          2.17617       -1.19167       -1.45192
H          3.11803       -0.00010        1.11715
H          1.48388        2.05247       -0.00085
H          2.17599        1.19247       -1.45139
