19
dsC7O2H10nsd_0765.xyz
O         -0.90151        1.99284        0.03034
C         -0.16094        1.04395       -0.03149
O          1.17498        1.26680        0.02372
C          2.14696        0.22048       -0.13705
C          1.66545       -1.13183        0.36235
C          0.36049       -1.47421       -0.35494
C         -0.65614       -0.37337       -0.10514
C         -1.83005       -0.64154        0.83754
C         -2.06840       -0.53021       -0.63250
H          2.41006        0.16028       -1.20173
H          3.02951        0.56742        0.40662
H          2.44075       -1.88007        0.16687
H          1.50744       -1.09418        1.44664
H          0.55754       -1.56850       -1.43172
H         -0.03934       -2.43849       -0.02490
H         -1.86355       -1.62185        1.30102
H         -2.15115        0.18349        1.46131
H         -2.27467       -1.43510       -1.19443
H         -2.54865        0.37018       -0.99485
