19
dsC7O2H10nsd_0250.xyz
C          1.88397       -0.97820       -0.48746
C          1.61072       -0.15090        0.75590
C          1.42687        1.31614        0.34165
C          0.23064        0.90483       -0.56591
O         -0.98331        1.36199        0.01425
C         -2.03864        0.43322       -0.18435
C         -1.70244       -0.90631        0.46111
O         -0.53827       -1.47861       -0.13731
C          0.48669       -0.55997       -0.21378
H          2.45072       -0.56737       -1.32191
H          2.06249       -2.03241       -0.29794
H          1.86676       -0.51258        1.74372
H          1.07716        1.96950        1.14212
H          2.27945        1.77852       -0.16620
H          0.26437        1.17788       -1.63222
H         -2.93045        0.86806        0.27715
H         -2.23645        0.28689       -1.25891
H         -1.53713       -0.76026        1.53882
H         -2.51126       -1.62806        0.31683
