19
dsC7O2H10nsd_4672.xyz
C         -3.41144       -0.40532        0.00046
C         -1.93066       -0.77260       -0.00060
C         -1.00451        0.43473       -0.00020
O         -1.43048        1.57258       -0.00004
C          0.45728        0.15790       -0.00001
C          1.40706        1.09644       -0.00008
C          2.76009        0.46136        0.00024
O          2.51822       -0.94276       -0.00040
C          1.11705       -1.20273        0.00041
H         -3.66375        0.19036        0.88130
H         -3.66398        0.19408       -0.87776
H         -4.03311       -1.30478       -0.00128
H         -1.67348       -1.39350        0.86975
H         -1.67442       -1.39173       -0.87253
H          1.22798        2.16368       -0.00022
H          3.35331        0.74452       -0.88424
H          3.35247        0.74408        0.88545
H          0.85159       -1.80250       -0.88423
H          0.85220       -1.80142        0.88601
