19
dsC7O2H10nsd_0171.xyz
C          1.50408       -0.30149       -0.93478
C          1.28964        0.80773        0.12545
C         -0.00000        1.63650        0.00000
C         -1.28964        0.80773       -0.12545
C         -1.50408       -0.30150        0.93478
C         -0.77012       -1.16875       -0.10935
O         -1.14827       -0.22007       -1.14672
C          0.77012       -1.16875        0.10935
O          1.14827       -0.22008        1.14672
H          1.05486       -0.18639       -1.91763
H          2.55899       -0.57121       -1.00734
H          2.14097        1.46315        0.33549
H         -0.08854        2.29039        0.87736
H          0.08854        2.29039       -0.87736
H         -2.14097        1.46315       -0.33548
H         -1.05485       -0.18640        1.91763
H         -2.55898       -0.57122        1.00735
H         -1.14798       -2.16973       -0.33624
H          1.14798       -2.16973        0.33623
