19
dsC7O2H10nsd_2506.xyz
O          2.41405        0.36368        0.13305
C          1.02283        0.22744        0.00321
C          0.27365        1.52987       -0.20860
C         -1.25195        1.37580       -0.37164
C         -1.85633        0.30912        0.55697
C         -1.05128       -0.98152        0.45506
O         -0.67986       -1.26588       -0.93829
C          0.69567       -1.11180       -0.60997
C          0.42701       -0.87533        0.85786
H          2.59304        0.80487        0.97154
H          0.48702        2.16090        0.66829
H          0.69522        2.05464       -1.07332
H         -1.73720        2.34257       -0.20287
H         -1.46901        1.08273       -1.40140
H         -1.85253        0.63541        1.60560
H         -2.90175        0.13147        0.28128
H         -1.56997       -1.84517        0.88243
H          1.42781       -1.71511       -1.13382
H          0.89627       -1.27621        1.74688
