19
dsC7O2H10nsd_5425.xyz
C         -2.16622       -2.13187       -0.15945
C         -0.65914       -1.87720       -0.04482
C         -0.35718       -0.53404        0.59406
C         -0.28720        0.72057       -0.23955
C         -0.88465        1.97754        0.27190
O         -1.39487        2.82289       -0.41770
C          0.96692        0.18449        0.47917
C          2.08034       -0.32470       -0.36074
O          3.24365       -0.20972       -0.06672
H         -2.36343       -3.11024       -0.60666
H         -2.64676       -2.11150        0.82462
H         -2.64961       -1.37195       -0.78163
H         -0.19359       -2.66766        0.55660
H         -0.20210       -1.93683       -1.03788
H         -0.82217       -0.40226        1.57003
H         -0.31614        0.60868       -1.31941
H         -0.83232        2.08498        1.38150
H          1.30521        0.73450        1.35209
H          1.77347       -0.82186       -1.30734
