19
dsC7O2H10nsd_3387.xyz
C         -2.82975       -0.94075        0.16737
C         -1.52011       -0.23039        0.42752
C         -1.02569        0.79968       -0.55005
O         -0.17513        1.82069       -0.08984
C          0.94561        1.22612        0.56312
C          1.03378       -0.21212        0.05118
C          2.03549       -1.17682        0.50801
O          2.14586       -0.55891       -0.78086
C         -0.33021       -0.53534       -0.47957
H         -2.83438       -1.94429        0.60668
H         -3.67120       -0.38254        0.59135
H         -3.01204       -1.05116       -0.90703
H         -1.29870       -0.04764        1.47626
H         -1.64041        1.12183       -1.38270
H          1.84616        1.79403        0.31402
H          0.80701        1.24644        1.65372
H          2.79062       -0.87752        1.23535
H          1.80241       -2.24094        0.50058
H         -0.41010       -1.29480       -1.24808
