19
dsC7O2H10nsd_4306.xyz
C          0.31489        2.11739        0.62975
C          0.40402        0.86882       -0.26348
C          1.64461       -0.01289        0.03524
O          2.13623       -0.46000       -1.22181
C          1.11136       -1.19358        0.89328
C         -0.36250       -1.19946        0.60608
C         -0.75193       -0.08869       -0.03513
C         -2.13793        0.18408       -0.45537
O         -3.08242       -0.54330       -0.23969
H          0.31377        1.84594        1.69105
H          1.16051        2.78861        0.44886
H         -0.60464        2.67804        0.43351
H          0.46468        1.18598       -1.31090
H          2.41960        0.55686        0.56699
H          2.88812       -1.03934       -1.06162
H          1.60384       -2.13581        0.62252
H          1.30043       -1.04383        1.96567
H         -1.03576       -2.00002        0.89055
H         -2.27615        1.13596       -1.01694
