19
dsC7O2H10nsd_4129.xyz
C          2.44080        0.10090       -0.22512
C          1.01306       -0.20362       -0.67344
C          0.51289       -1.63155       -0.24836
C         -0.69537       -1.21226        0.60413
O         -0.17254       -0.06895        1.35723
C         -0.06736        0.63802        0.06146
C          0.01647        2.13282        0.13786
C         -1.36747       -0.13453       -0.26897
O         -2.43153        0.09735       -0.75193
H          3.13977       -0.62658       -0.65073
H          2.76380        1.09696       -0.54443
H          2.51859        0.04552        0.86505
H          0.92384       -0.06042       -1.75614
H          0.23671       -2.26813       -1.09342
H          1.25558       -2.15751        0.35747
H         -1.23169       -1.94308        1.20569
H          0.00481        2.55432       -0.87222
H         -0.83503        2.53917        0.68924
H          0.93815        2.45393        0.63162
