19
dsC7O2H10nsd_2313.xyz
C         -1.48664        1.41979        0.56272
C         -0.61732        0.46109       -0.23485
C          0.56832        1.14122       -0.97181
C          1.68593        0.32891       -0.23981
C          1.27193        0.10054        1.26618
C          0.17727       -0.64119        0.48419
C         -1.06310       -1.50706        0.27301
O         -1.47601       -0.59590       -0.79100
O          1.18532       -1.00609       -0.50543
H         -2.09389        0.89340        1.30570
H         -0.89407        2.18314        1.07590
H         -2.17173        1.93251       -0.12099
H          0.61703        0.92135       -2.03967
H          0.59205        2.22377       -0.82248
H          2.72607        0.49052       -0.52397
H          2.00063       -0.54713        1.75416
H          0.98817        0.94240        1.90185
H         -0.87248       -2.51819       -0.09453
H         -1.78460       -1.52560        1.09767
