18
dsC7O2H10nsd_1327.xyz
C         -1.80858       -0.98445       -0.79739
C         -0.86896       -0.19664        0.14192
C         -1.39248       -0.29479        1.59325
C         -0.81170        1.20802       -0.27445
C         -0.75601        2.36460       -0.59774
C          0.56740       -0.82221        0.03183
O          0.97534       -0.95240       -1.29741
C          1.60310       -0.01890        0.80258
O          2.59036        0.41184        0.25776
H         -1.87187       -2.02940       -0.47505
H         -2.81252       -0.55229       -0.77155
H         -1.43518       -0.95756       -1.82098
H         -0.80825        0.31123        2.28977
H         -2.42553        0.05967        1.63753
H         -1.37563       -1.33546        1.93398
H         -0.70575        3.38415       -0.89104
H          0.51010       -1.81726        0.50959
H          1.78000       -0.41472       -1.37672
