19
dsC7O2H10nsd_5900.xyz
C          2.88270       -0.29130        0.53897
C          1.55727       -0.73546       -0.04303
O          1.45042       -1.68527       -0.77688
C          0.30887        0.08908        0.38225
C         -0.99441       -0.56740       -0.11034
C         -2.25329        0.12477        0.41345
O         -3.43870       -0.54456        0.01467
C          0.45751        1.46908       -0.07620
C          0.59144        2.59093       -0.48875
H          3.69105       -0.88307        0.10880
H          3.04741        0.77339        0.35256
H          2.87091       -0.42879        1.62684
H          0.31118        0.09787        1.48381
H         -0.99450       -0.56902       -1.20606
H         -0.99956       -1.61489        0.20369
H         -2.26261        0.10949        1.50976
H         -2.26249        1.18055        0.10507
H         -3.49657       -0.49229       -0.94473
H          0.70089        3.58726       -0.84013
