19
dsC7O2H10nsd_4594.xyz
C          3.95949        0.20744        0.34656
C          2.96555       -0.86919       -0.12713
C          1.59836       -0.37170       -0.23974
C          0.47837        0.06104       -0.34576
C         -0.88330        0.59891       -0.40718
O         -0.93026        1.98317       -0.07313
C         -1.81627       -0.21417        0.47765
C         -2.53369       -1.38430       -0.03666
O         -3.20212       -0.13670        0.16607
H          3.98028        1.05020       -0.34939
H          3.67906        0.58954        1.33188
H          4.96802       -0.21059        0.41367
H          3.28745       -1.26276       -1.09963
H          2.98773       -1.72009        0.56565
H         -1.27047        0.54085       -1.43165
H         -0.38311        2.10997        0.70976
H         -1.58297       -0.16944        1.54315
H         -2.40295       -1.68097       -1.07665
H         -2.81497       -2.18670        0.64316
