19
dsC7O2H10nsd_0797.xyz
O         -2.87550        0.52945        0.00051
C         -2.05887       -0.35573        0.04764
C         -0.57134       -0.17295       -0.00898
C          0.22448       -1.07534       -1.01052
C          1.37685       -1.00446        0.02512
C          0.28006       -0.86127        1.11592
O          2.12748        0.18401       -0.15515
C          1.39678        1.37573        0.14294
C         -0.10469        1.27694       -0.19839
H         -2.37421       -1.42296        0.14195
H         -0.20150       -2.08046       -1.08764
H          0.41982       -0.66687       -2.00451
H          2.09668       -1.82262        0.08608
H         -0.13023       -1.83842        1.38476
H          0.49763       -0.29678        2.02471
H          1.51194        1.60861        1.21073
H          1.88239        2.18008       -0.41582
H         -0.67632        1.95189        0.44587
H         -0.30167        1.58237       -1.23141
