19
dsC7O2H10nsd_1438.xyz
C         -1.87668       -0.45632        1.21485
C         -0.96113       -0.30022        0.00405
C         -1.06917       -1.51623       -0.91130
C         -0.82667        1.08390       -0.71647
C         -0.08292        1.69040        0.49407
C          0.51141        0.28963        0.16639
O          0.49042        0.66039       -1.25526
C          1.70979       -0.38189        0.74233
O          2.65485       -0.76350        0.10257
H         -1.62936       -1.37325        1.76075
H         -1.83984        0.37261        1.92288
H         -2.91499       -0.55695        0.87896
H         -2.09734       -1.62174       -1.27603
H         -0.39987       -1.42598       -1.76570
H         -0.82433       -2.43380       -0.36539
H         -1.51153        1.56503       -1.41630
H          0.58600        2.51176        0.23803
H         -0.60809        1.85196        1.43396
H          1.64949       -0.52040        1.84686
