19
dsC7O2H10nsd_2463.xyz
O         -2.44513       -0.43122        0.02781
C         -1.09124       -0.10662       -0.05613
C         -0.67722        1.14123       -0.84492
C          0.51125        1.73421       -0.05127
C          1.07804        0.55562        0.76919
O          1.94186       -0.25081       -0.04080
C          1.17369       -1.23836       -0.72651
C         -0.17443       -1.30142       -0.02993
C         -0.14074       -0.30891        1.11031
H         -2.89605        0.28598        0.48753
H         -0.40643        0.89917       -1.87837
H         -1.52285        1.83436       -0.89827
H          1.28251        2.18303       -0.68185
H          0.14935        2.50508        0.63909
H          1.66054        0.88223        1.63379
H          1.08619       -0.98131       -1.79274
H          1.69932       -2.19806       -0.65652
H         -0.65955       -2.26092        0.10508
H         -0.44292       -0.54778        2.12171
