19
dsC7O2H10nsd_4561.xyz
O          2.46564       -1.43446        0.11333
C          1.46470       -0.53195       -0.32876
C          1.66137        0.86203        0.28048
O          0.67737        1.77411       -0.17322
C         -0.63160        1.38077        0.18245
C         -1.00337        0.02062       -0.45146
C          0.04765       -1.03709       -0.03863
C         -2.35721       -0.37345       -0.08363
C         -3.46901       -0.68458        0.25184
H          2.33570       -1.58320        1.05680
H          1.60739       -0.45391       -1.41297
H          1.63549        0.78170        1.38357
H          2.63289        1.27132       -0.00702
H         -0.73526        1.30863        1.27795
H         -1.30276        2.16566       -0.17383
H         -0.95338        0.15044       -1.54113
H         -0.05222       -1.22741        1.03983
H         -0.13261       -1.98610       -0.55126
H         -4.45446       -0.96241        0.53344
