19
dsC7O2H10nsd_5597.xyz
O          2.87720       -0.65163        0.25936
C          1.92983        0.06679       -0.51703
C          0.52927       -0.51608       -0.38455
C         -0.70593        0.17221       -1.07250
C         -0.72181        1.58569       -0.44216
C         -0.41651        1.22017        1.05523
C         -0.30442       -0.31771        0.93940
C         -1.49319       -0.60458        0.00040
O         -2.48999       -1.26081        0.04055
H          2.63416       -0.55371        1.18564
H          1.94981        1.13796       -0.27415
H          2.26474       -0.03167       -1.55520
H          0.57147       -1.57804       -0.64431
H         -0.91495        0.07339       -2.13576
H          0.03196        2.24551       -0.87732
H         -1.69447        2.06899       -0.56363
H          0.50593        1.68072        1.41840
H         -1.22104        1.51769        1.73217
H         -0.12876       -0.90019        1.84208
