19
dsC7O2H10nsd_5741.xyz
C         -3.42655       -0.36043        0.23926
O         -2.20276       -0.62565       -0.41203
C         -1.08319       -0.20617        0.32098
C         -0.76566        1.33042        0.20390
C          0.51658        0.97192       -0.55724
C          1.37827        0.07046        0.31398
C          2.71559       -0.26175       -0.22635
O          3.70387       -0.43916        0.44159
C          0.19940       -0.50147       -0.45755
H         -3.59038        0.71707        0.38973
H         -4.22282       -0.75081       -0.39822
H         -3.47690       -0.85747        1.22029
H         -1.12325       -0.60951        1.34531
H         -1.50805        1.80983       -0.43787
H         -0.64595        1.90856        1.12500
H          0.95096        1.52766       -1.37962
H          1.33662        0.15313        1.39752
H          2.74997       -0.33817       -1.33985
H          0.31433       -1.29970       -1.18056
