19
dsC7O2H10nsd_3707.xyz
C         -0.65410        2.02108        0.03689
C         -0.83726        0.53421        0.12516
C         -2.07428       -0.14537        0.69988
C         -1.63792       -0.45061       -0.69947
O         -0.59112       -1.43353       -0.69498
C          0.24451       -0.52224        0.03466
C          1.26794       -0.99772        1.02379
C          1.68601       -0.37962       -0.30579
O          2.22130        0.91153       -0.33630
H         -1.61650        2.51316       -0.13726
H         -0.24019        2.42570        0.96742
H          0.02964        2.29073       -0.77136
H         -1.99236       -0.91404        1.46327
H         -2.93713        0.50858        0.79008
H         -2.23105       -0.35098       -1.60080
H          1.40739       -0.39811        1.91823
H          1.40031       -2.06698        1.15003
H          2.06371       -1.06564       -1.06468
H          3.10535        0.87517        0.04460
