19
dsC7O2H10nsd_4722.xyz
O         -2.65940       -1.30920       -0.26941
C         -1.40247       -1.18859        0.35986
C         -0.53961       -0.03273       -0.19450
C         -1.21564        1.25564       -0.06164
C         -1.74068        2.32760        0.08019
C          0.83360        0.00258        0.49357
C          1.89239        0.95953       -0.09564
O          2.79663       -0.13350       -0.36547
C          1.84922       -1.10223        0.11927
H         -2.51430       -1.51009       -1.19966
H         -1.61249       -1.00571        1.41839
H         -0.82205       -2.12241        0.29114
H         -0.37101       -0.22862       -1.26573
H         -2.22003        3.26835        0.19360
H          0.69640        0.12312        1.57100
H          1.58613        1.47986       -1.01212
H          2.32477        1.68876        0.59860
H          1.52244       -1.78992       -0.67413
H          2.25141       -1.69251        0.95128
