19
dsC7O2H10nsd_1231.xyz
C         -2.97717        1.34949        0.21800
C         -2.54910        0.03594       -0.45293
O         -3.30094       -1.07299        0.03413
C         -1.10525       -0.18583       -0.32178
C          0.07536       -0.37074       -0.16127
C          1.48022       -0.62206        0.00672
O          2.11636       -0.10040        1.19041
C          2.48814        0.45863       -0.06664
C          3.89581        0.20905       -0.53958
H         -2.73037        1.33263        1.28433
H         -2.46654        2.20394       -0.23552
H         -4.05713        1.47635        0.10740
H         -2.80197        0.08780       -1.51913
H         -3.00014       -1.25214        0.93217
H          1.80940       -1.62724       -0.25667
H          2.10409        1.46701       -0.22692
H          4.18516       -0.83134       -0.36907
H          3.98757        0.43077       -1.60799
H          4.59853        0.85246        0.00003
