19
dsC7O2H10nsd_5558.xyz
C         -2.70578       -0.22495       -0.03179
O         -1.49889        0.42285       -0.36600
C         -0.43340        0.13858        0.51502
C          0.10241       -1.30002        0.48286
O          0.58517       -1.72742       -0.79100
C          1.53613       -1.22498        0.17803
C          1.86786        0.21810       -0.02265
C          0.77824        0.97919        0.11702
C          0.63092        2.44603       -0.11450
H         -3.02307        0.01321        0.99635
H         -3.46703        0.13444       -0.72812
H         -2.62953       -1.31740       -0.12774
H         -0.74169        0.37525        1.55194
H         -0.33594       -2.07400        1.10698
H          2.26235       -1.95034        0.53167
H          2.85371        0.57400       -0.29759
H          0.27545        2.95608        0.79013
H          1.57566        2.90278       -0.41989
H         -0.11847        2.63087       -0.89165
