19
dsC7O2H10nsd_5136.xyz
C          2.27819       -1.28130        0.58473
C          2.03241       -0.08652       -0.34316
C          0.60392        0.38657       -0.34237
C          0.17472        1.78851       -0.66433
C         -0.06921        1.21560        0.72358
C         -1.40959        0.56563        0.97251
C         -1.48945       -0.55618       -0.06961
O         -2.40456       -1.28979       -0.29701
O         -0.31437       -0.61884       -0.76540
H          2.05192       -1.02719        1.62570
H          1.64884       -2.12846        0.29967
H          3.32257       -1.60210        0.53642
H          2.66553        0.75947       -0.05199
H          2.31554       -0.34642       -1.37060
H          0.94947        2.54180       -0.75737
H         -0.67195        1.92175       -1.33097
H          0.49681        1.61308        1.55740
H         -1.47950        0.11778        1.96909
H         -2.27380        1.22556        0.85388
