19
dsC7O2H10nsd_0859.xyz
O         -3.42696       -0.44235        0.11131
C         -2.34673       -0.18707       -0.35256
C         -1.06922       -0.03149        0.43744
C         -0.41674        1.36786        0.19540
O          0.79646        1.14699       -0.50841
C          1.26003       -0.12316       -0.12475
C          2.60412       -0.53257       -0.61087
C          2.39649       -0.21103        0.86352
C          0.03160       -1.01202       -0.05310
H         -2.21041       -0.03513       -1.45097
H         -1.30305       -0.17737        1.49334
H         -1.03456        2.03628       -0.41322
H         -0.22989        1.85616        1.16130
H          2.75402       -1.56716       -0.90058
H          3.15223        0.18953       -1.20530
H          2.41193       -1.02781        1.57785
H          2.80876        0.72424        1.22514
H         -0.21147       -1.39023       -1.05381
H          0.14915       -1.86869        0.61252
