19
dsC7O2H10nsd_3016.xyz
C         -1.70392       -1.58865       -0.57257
C         -1.36053       -0.38789        0.29357
C         -0.16109       -0.36159        1.28469
O         -0.25276        1.11762        1.28079
C         -0.37477        0.73920       -0.16092
C         -0.52346        1.82821       -1.17305
C          0.79348       -0.23635        0.09289
C          1.71952       -1.05814       -0.67417
O          2.15295        0.07475        0.11643
H         -2.40648       -1.30248       -1.36269
H         -0.82534       -2.02988       -1.04892
H         -2.18795       -2.36758        0.02615
H         -2.24097        0.05603        0.76513
H         -0.03315       -0.85765        2.24604
H         -1.39209        2.45161       -0.94202
H          0.36966        2.45987       -1.18267
H         -0.65855        1.40222       -2.17247
H          2.03208       -2.03070       -0.29685
H          1.80588       -0.92911       -1.75219
